@<TRIPOS>MOLECULE
1H1S:A:4SP1298
    50    53     1     0     0
SMALL
NO_CHARGES
****
Generated from the CSD

@<TRIPOS>ATOM
     1 C1      28.3868   5.8328  65.0597   C.2       1 RES1   0.0000
     2 C2      25.2947   2.9359  63.7237   C.2       1 RES1   0.0000
     3 C3      26.3767   8.4117  62.9707   C.3       1 RES1   0.0000
     4 C4      25.9157   9.2107  61.7156   C.3       1 RES1   0.0000
     5 C5      26.3297   8.6157  60.3406   C.3       1 RES1   0.0000
     6 C6      25.8287   9.3527  59.1036   C.3       1 RES1   0.0000
     7 C7      26.2587  10.9016  59.1476   C.3       1 RES1   0.0000
     8 C8      25.7877  11.4646  60.4846   C.3       1 RES1   0.0000
     9 C9      26.2747  10.7086  61.7736   C.3       1 RES1   0.0000
    10 C10     31.8208   9.0437  65.9998   C.2       1 RES1   0.0000
    11 C11     31.7738   9.7007  64.7957   C.2       1 RES1   0.0000
    12 C12     30.9088   9.1617  63.7727   C.2       1 RES1   0.0000
    13 C13     30.1798   8.0307  64.0517   C.2       1 RES1   0.0000
    14 N14     32.0479  12.0576  63.5157   N.pl3     1 RES1   0.0000
    15 N15     27.6537   6.7478  64.2147   N.2       1 RES1   0.0000
    16 C16     26.5797   6.2868  63.6127   C.2       1 RES1   0.0000
    17 O17     25.7747   7.0578  62.8947   O.3       1 RES1   0.0000
    18 C18     26.1807   4.9198  63.7007   C.2       1 RES1   0.0000
    19 N19     25.0847   4.1329  63.2457   N.2       1 RES1   0.0000
    20 N20     26.3877   2.8779  64.4797   N.pl3     1 RES1   0.0000
    21 C21     26.8797   4.0899  64.4657   C.2       1 RES1   0.0000
    22 N22     28.0267   4.6118  65.0837   N.2       1 RES1   0.0000
    23 N23     29.4858   6.2308  65.6437   N.pl3     1 RES1   0.0000
    24 C24     30.1658   7.3727  65.2837   C.2       1 RES1   0.0000
    25 C25     31.0368   7.9347  66.2438   C.2       1 RES1   0.0000
    26 S26     32.8089  11.0676  64.4897   S.o2      1 RES1   0.0000
    27 O27     33.9739  10.5746  63.7697   O.2       1 RES1   0.0000
    28 O28     33.0869  11.8446  65.6927   O.2       1 RES1   0.0000
    29 H1      31.0922   7.4688  67.2266   H         1 RES1   0.0000
    30 H2      29.8578   5.6687  66.4026   H         1 RES1   0.0000
    31 H3      26.7601   2.0671  64.9636   H         1 RES1   0.0000
    32 H4      24.6484   2.0821  63.5259   H         1 RES1   0.0000
    33 H5      26.0399   8.9163  63.8750   H         1 RES1   0.0000
    34 H6      27.4629   8.3338  62.9816   H         1 RES1   0.0000
    35 H7      24.8275   9.1728  61.7318   H         1 RES1   0.0000
    36 H8      25.9518   7.5954  60.2939   H         1 RES1   0.0000
    37 H9      27.4178   8.6019  60.2998   H         1 RES1   0.0000
    38 H10     24.7426   9.2848  59.0632   H         1 RES1   0.0000
    39 H11     26.2547   8.8891  58.2150   H         1 RES1   0.0000
    40 H12     25.7874  11.4427  58.3285   H         1 RES1   0.0000
    41 H13     27.3410  10.9905  59.0662   H         1 RES1   0.0000
    42 H14     24.6988  11.4509  60.4844   H         1 RES1   0.0000
    43 H15     26.1378  12.4936  60.5522   H         1 RES1   0.0000
    44 H16     27.3556  10.8110  61.8575   H         1 RES1   0.0000
    45 H17     25.7991  11.1535  62.6464   H         1 RES1   0.0000
    46 H18     32.4906   9.4051  66.7787   H         1 RES1   0.0000
    47 H19     30.8355   9.6425  62.7983   H         1 RES1   0.0000
    48 H20     29.5671   7.6164  63.2524   H         1 RES1   0.0000
    49 H21     32.4933  12.9201  63.2192   H         1 RES1   0.0000
    50 H22     31.1147  11.8296  63.1880   H         1 RES1   0.0000
@<TRIPOS>BOND
     1     1    15    2
     2     1    22    1
     3     1    23    1
     4     2    19    2
     5     2    20    1
     6     3     4    1
     7     3    17    1
     8     4     5    1
     9     4     9    1
    10     5     6    1
    11     6     7    1
    12     7     8    1
    13     8     9    1
    14    10    11    2
    15    10    25    1
    16    11    12    1
    17    11    26    1
    18    12    13    2
    19    13    24    1
    20    14    26    1
    21    15    16    1
    22    16    17    1
    23    16    18    2
    24    18    19    1
    25    18    21    1
    26    20    21    1
    27    21    22    2
    28    23    24    1
    29    24    25    2
    30    26    27    2
    31    26    28    2
    32    25    29    1
    33    23    30    1
    34    20    31    1
    35     2    32    1
    36     3    33    1
    37     3    34    1
    38     4    35    1
    39     5    36    1
    40     5    37    1
    41     6    38    1
    42     6    39    1
    43     7    40    1
    44     7    41    1
    45     8    42    1
    46     8    43    1
    47     9    44    1
    48     9    45    1
    49    10    46    1
    50    12    47    1
    51    13    48    1
    52    14    49    1
    53    14    50    1
@<TRIPOS>SUBSTRUCTURE
     1 RES1        1 GROUP             0 ****  ****    0  
@<TRIPOS>MOLECULE
3R73:A:X87920
    45    46     1     0     0
SMALL
USER_CHARGES
****
Generated from the CSD

@<TRIPOS>ATOM
     1 N1      30.0238   6.3642  64.7713   N.pl3     1 RES1   0.0000
     2 N2      26.9688   3.6211  64.6153   N.am      1 RES1   0.0000
     3 N3      32.0008  10.5824  65.9953   N.2       1 RES1   0.0000
     4 N4      27.4178   9.5863  62.4682   N.pl3     1 RES1   0.0000
     5 N5      27.6388  13.6585  60.7462   N.3       1 RES1   0.0000
     6 N6      25.2038   7.9393  62.6992   N.pl3     1 RES1   1.0000
     7 C7      26.4688   6.3222  63.8412   C.2       1 RES1   0.0000
     8 C8      27.7188   5.8862  64.3903   C.2       1 RES1   0.0000
     9 C9      28.8718   6.7402  64.2743   C.2       1 RES1   0.0000
    10 C10     28.7378   8.0063  63.6052   C.2       1 RES1   0.0000
    11 C11     27.4988   8.4373  63.0602   C.2       1 RES1   0.0000
    12 C12     26.3438   7.5873  63.1762   C.2       1 RES1   0.0000
    13 C13     27.7838   4.6462  65.0193   C.2       1 RES1   0.0000
    14 C14     31.3088   7.1002  64.5663   C.3       1 RES1   0.0000
    15 C15     31.4618   8.2303  65.5663   C.2       1 RES1   0.0000
    16 C16     31.8468   9.5153  65.1373   C.2       1 RES1   0.0000
    17 C17     31.7588  10.3653  67.3393   C.2       1 RES1   0.0000
    18 C18     31.3688   9.1173  67.8603   C.2       1 RES1   0.0000
    19 C19     31.2208   8.0383  66.9533   C.2       1 RES1   0.0000
    20 C20     28.4938  10.0993  61.5832   C.3       1 RES1   0.0000
    21 C21     28.5598  11.6184  61.6872   C.3       1 RES1   0.0000
    22 C22     27.7768  12.2394  60.5342   C.3       1 RES1   0.0000
    23 O23     28.5688   4.4431  65.9193   O.2       1 RES1   0.0000
    24 O24     25.1208   8.7153  61.6342   O.3       1 RES1  -1.0000
    25 O25     24.0879   7.5223  63.2652   O.2       1 RES1   0.0000
    26 H1      29.6099   8.6521  63.5139   H         1 RES1   0.0000
    27 H2      30.0455   5.5184  65.3319   H         1 RES1   0.0000
    28 H3      27.0207   2.7191  65.0778   H         1 RES1   0.0000
    29 H4      26.3133   3.7639  63.8536   H         1 RES1   0.0000
    30 H5      26.5903  10.1556  62.6143   H         1 RES1   0.0000
    31 H6      28.5589  14.0844  60.7949   H         1 RES1   0.0000
    32 H7      27.1175  14.0664  59.9768   H         1 RES1   0.0000
    33 H8      25.5946   5.6790  63.9307   H         1 RES1   0.0000
    34 H9      31.3242   7.5134  63.5589   H         1 RES1   0.0000
    35 H10     32.1387   6.4054  64.6864   H         1 RES1   0.0000
    36 H11     32.0318   9.6732  64.0758   H         1 RES1   0.0000
    37 H12     31.8756  11.2006  68.0282   H         1 RES1   0.0000
    38 H13     31.1867   8.9850  68.9258   H         1 RES1   0.0000
    39 H14     30.9211   7.0580  67.3210   H         1 RES1   0.0000
    40 H15     28.2824   9.8153  60.5534   H         1 RES1   0.0000
    41 H16     29.4483   9.6732  61.8886   H         1 RES1   0.0000
    42 H17     28.3082  12.0634  59.6001   H         1 RES1   0.0000
    43 H18     26.7890  11.7840  60.4813   H         1 RES1   0.0000
    44 H19     29.5986  11.9413  61.6366   H         1 RES1   0.0000
    45 H20     28.1263  11.9370  62.6341   H         1 RES1   0.0000
@<TRIPOS>BOND
     1     1     9    1
     2     1    14    1
     3     2    13   am
     4     3    16    2
     5     3    17    1
     6     4    11    1
     7     4    20    1
     8     5    22    1
     9     6    12    1
    10     6    24    1
    11     6    25    2
    12     7     8    2
    13     7    12    1
    14     8     9    1
    15     8    13    1
    16     9    10    2
    17    10    11    1
    18    11    12    2
    19    13    23    2
    20    14    15    1
    21    15    16    1
    22    15    19    2
    23    17    18    2
    24    18    19    1
    25    20    21    1
    26    21    22    1
    27    10    26    1
    28     1    27    1
    29     2    28    1
    30     2    29    1
    31     4    30    1
    32     5    31    1
    33     5    32    1
    34     7    33    1
    35    14    34    1
    36    14    35    1
    37    16    36    1
    38    17    37    1
    39    18    38    1
    40    19    39    1
    41    20    40    1
    42    20    41    1
    43    22    42    1
    44    22    43    1
    45    21    44    1
    46    21    45    1
@<TRIPOS>SUBSTRUCTURE
     1 RES1        1 GROUP             0 ****  ****    0  
@<TRIPOS>MOLECULE
4EOL:A:1RO301
    37    40     1     0     0
SMALL
NO_CHARGES
****
Generated from the CSD

@<TRIPOS>ATOM
     1 O1      26.9791   6.7790  62.4575   O.2       1 RES1   0.0000
     2 C2      25.8491   6.6560  61.9005   C.2       1 RES1   0.0000
     3 N3      25.5981   7.5530  60.9905   N.2       1 RES1   0.0000
     4 C4      24.3931   7.3540  60.4775   C.2       1 RES1   0.0000
     5 N5      24.0841   8.2740  59.5435   N.pl3     1 RES1   0.0000
     6 C6      25.1191   9.2490  59.1325   C.3       1 RES1   0.0000
     7 C7      26.0301   9.7560  60.2485   C.2       1 RES1   0.0000
     8 C8      27.3851   9.6100  60.5425   C.2       1 RES1   0.0000
     9 C9      27.7941  10.2570  61.7165   C.2       1 RES1   0.0000
    10 C10     26.8031  10.9420  62.4145   C.2       1 RES1   0.0000
    11 S11     25.3401  10.7240  61.5115   S.3       1 RES1   0.0000
    12 S12     23.5021   5.9750  61.1055   S.3       1 RES1   0.0000
    13 C13     24.8391   5.6120  62.1825   C.2       1 RES1   0.0000
    14 C14     24.9401   4.5080  63.1885   C.2       1 RES1   0.0000
    15 C15     26.2101   4.3920  63.9625   C.2       1 RES1   0.0000
    16 C16     26.6061   3.1770  64.5215   C.2       1 RES1   0.0000
    17 C17     27.8191   3.0510  65.2145   C.2       1 RES1   0.0000
    18 C18     28.6801   4.1360  65.3515   C.2       1 RES1   0.0000
    19 N19     29.8591   4.0590  66.0135   N.2       1 RES1   0.0000
    20 C20     30.6651   5.1300  66.1225   C.2       1 RES1   0.0000
    21 C21     30.3181   6.3670  65.5635   C.2       1 RES1   0.0000
    22 C22     29.1221   6.5250  64.8625   C.2       1 RES1   0.0000
    23 C23     28.2771   5.4240  64.7445   C.2       1 RES1   0.0000
    24 C24     27.0611   5.4930  64.0865   C.2       1 RES1   0.0000
    25 H1      26.9231  11.5018  63.3409   H         1 RES1   0.0000
    26 H2      30.9905   7.2160  65.6776   H         1 RES1   0.0000
    27 H3      24.1161   3.8145  63.3495   H         1 RES1   0.0000
    28 H4      28.0680   9.0413  59.9131   H         1 RES1   0.0000
    29 H5      23.1580   8.2982  59.1289   H         1 RES1   0.0000
    30 H6      31.6088   5.0336  66.6573   H         1 RES1   0.0000
    31 H7      28.8563   7.4836  64.4194   H         1 RES1   0.0000
    32 H8      28.0909   2.0912  65.6513   H         1 RES1   0.0000
    33 H9      28.8262  10.2258  62.0624   H         1 RES1   0.0000
    34 H10     26.7561   6.4423  63.6486   H         1 RES1   0.0000
    35 H11     24.6140  10.1093  58.6958   H         1 RES1   0.0000
    36 H12     25.7455   8.7745  58.3786   H         1 RES1   0.0000
    37 H13     25.9593   2.3071  64.4176   H         1 RES1   0.0000
@<TRIPOS>BOND
     1     1     2    2
     2     2     3    1
     3     2    13    1
     4     3     4    2
     5     4     5    1
     6     4    12    1
     7     5     6    1
     8     6     7    1
     9     7     8    2
    10     7    11    1
    11     8     9    1
    12     9    10    2
    13    10    11    1
    14    12    13    1
    15    13    14    2
    16    14    15    1
    17    15    16    2
    18    15    24    1
    19    16    17    1
    20    17    18    2
    21    18    19    1
    22    18    23    1
    23    19    20    2
    24    20    21    1
    25    21    22    2
    26    22    23    1
    27    23    24    2
    28    10    25    1
    29    21    26    1
    30    14    27    1
    31     8    28    1
    32     5    29    1
    33    20    30    1
    34    22    31    1
    35    17    32    1
    36     9    33    1
    37    24    34    1
    38     6    35    1
    39     6    36    1
    40    16    37    1
@<TRIPOS>SUBSTRUCTURE
     1 RES1        1 GROUP             0 ****  ****    0  
@<TRIPOS>MOLECULE
1H07:A:MFQ302
    60    62     1     0     0
SMALL
NO_CHARGES
****
Generated from the CSD

@<TRIPOS>ATOM
     1 C1      31.2866   9.0303  66.2029   C.2       1 RES1   0.0000
     2 C2      26.9755   3.2701  64.7639   C.2       1 RES1   0.0000
     3 C3      28.3936   5.0521  65.0309   C.2       1 RES1   0.0000
     4 C4      27.4945   5.8472  64.1929   C.2       1 RES1   0.0000
     5 C5      26.3285   5.2451  63.6679   C.2       1 RES1   0.0000
     6 C6      25.9695  10.0533  61.0718   C.2       1 RES1   0.0000
     7 C7      26.4625   8.9062  60.4198   C.2       1 RES1   0.0000
     8 C8      26.2635   7.6192  60.9748   C.2       1 RES1   0.0000
     9 C9      25.5555   7.4342  62.2078   C.2       1 RES1   0.0000
    10 C10     25.2645   9.9063  62.3018   C.2       1 RES1   0.0000
    11 C11     24.0045   4.1611  61.5698   C.1       1 RES1   0.0000
    12 C12     24.0455   5.3461  62.3468   C.3       1 RES1   0.0000
    13 C13     25.0595   8.6052  62.8678   C.2       1 RES1   0.0000
    14 C14     26.1915  11.4303  60.4508   C.3       1 RES1   0.0000
    15 C15     30.1516   6.9942  65.4459   C.2       1 RES1   0.0000
    16 N16     26.0985   3.9351  63.9919   N.2       1 RES1   0.0000
    17 N17     28.0995   3.7661  65.2939   N.2       1 RES1   0.0000
    18 N18     25.3245   6.0292  62.7868   N.pl3     1 RES1   0.0000
    19 Br19    26.9655   6.1472  60.0068   Br        1 RES1   0.0000
    20 N20     23.9565   3.1911  60.9318   N.1       1 RES1   0.0000
    21 N21     29.6326   5.6372  65.6039   N.pl3     1 RES1   0.0000
    22 C22     30.8556   7.6952  66.4669   C.2       1 RES1   0.0000
    23 C23     30.9986   9.6013  64.9299   C.2       1 RES1   0.0000
    24 C24     30.3156   8.8682  63.9669   C.2       1 RES1   0.0000
    25 C25     29.9096   7.5982  64.2179   C.2       1 RES1   0.0000
    26 O26     31.3686  10.9033  64.6129   O.3       1 RES1   0.0000
    27 C27     30.8576  11.5803  63.4209   C.3       1 RES1   0.0000
    28 C28     31.3896  12.9954  63.3028   C.3       1 RES1   0.0000
    29 C29     32.7006  13.1374  62.4988   C.3       1 RES1   0.0000
    30 N30     32.7386  14.2784  61.5358   N.3       1 RES1   0.0000
    31 C31     32.6326  13.8804  60.1038   C.3       1 RES1   0.0000
    32 C32     33.8717  15.2144  61.7798   C.3       1 RES1   0.0000
    33 O33     31.5096  13.5744  64.5999   O.3       1 RES1   0.0000
    34 H1      24.8796  10.7868  62.8142   H         1 RES1   0.0000
    35 H2      27.0020   9.0104  59.4796   H         1 RES1   0.0000
    36 H3      27.7213   6.8901  63.9766   H         1 RES1   0.0000
    37 H4      26.7492   2.2268  64.9787   H         1 RES1   0.0000
    38 H5      23.5036   5.1167  63.2631   H         1 RES1   0.0000
    39 H6      23.4942   6.0920  61.7761   H         1 RES1   0.0000
    40 H7      31.8244   9.6005  66.9590   H         1 RES1   0.0000
    41 H8      30.1036   9.3189  62.9985   H         1 RES1   0.0000
    42 H9      30.6329  13.5710  62.7718   H         1 RES1   0.0000
    43 H10     29.3844   7.0419  63.4429   H         1 RES1   0.0000
    44 H11     34.8137  14.6756  61.6888   H         1 RES1   0.0000
    45 H12     33.8417  16.0195  61.0471   H         1 RES1   0.0000
    46 H13     33.7879  15.6323  62.7819   H         1 RES1   0.0000
    47 H14     24.5212   8.5059  63.8092   H         1 RES1   0.0000
    48 H15     31.0603   7.2234  67.4268   H         1 RES1   0.0000
    49 H16     30.1907   5.0145  66.1792   H         1 RES1   0.0000
    50 H17     25.7273  11.4636  59.4662   H         1 RES1   0.0000
    51 H18     25.7455  12.1922  61.0884   H         1 RES1   0.0000
    52 H19     27.2600  11.6172  60.3549   H         1 RES1   0.0000
    53 H20     32.1358  13.0323  65.1477   H         1 RES1   0.0000
    54 H21     29.7705  11.6162  63.4751   H         1 RES1   0.0000
    55 H22     31.1586  11.0162  62.5393   H         1 RES1   0.0000
    56 H23     32.8516  12.2173  61.9363   H         1 RES1   0.0000
    57 H24     33.5173  13.2678  63.2073   H         1 RES1   0.0000
    58 H25     31.6905  13.3590  59.9407   H         1 RES1   0.0000
    59 H26     32.6687  14.7697  59.4763   H         1 RES1   0.0000
    60 H27     33.4611  13.2216  59.8478   H         1 RES1   0.0000
@<TRIPOS>BOND
     1     1    22    2
     2     1    23    1
     3     2    16    2
     4     2    17    1
     5     3     4    1
     6     3    17    2
     7     3    21    1
     8     4     5    2
     9     5    16    1
    10     5    18    1
    11     6     7    2
    12     6    10    1
    13     6    14    1
    14     7     8    1
    15     8     9    2
    16     8    19    1
    17     9    13    1
    18     9    18    1
    19    10    13    2
    20    11    12    1
    21    11    20    3
    22    12    18    1
    23    15    21    1
    24    15    22    1
    25    15    25    2
    26    23    24    2
    27    23    26    1
    28    24    25    1
    29    26    27    1
    30    27    28    1
    31    28    29    1
    32    28    33    1
    33    29    30    1
    34    30    31    1
    35    30    32    1
    36    10    34    1
    37     7    35    1
    38     4    36    1
    39     2    37    1
    40    12    38    1
    41    12    39    1
    42     1    40    1
    43    24    41    1
    44    28    42    1
    45    25    43    1
    46    32    44    1
    47    32    45    1
    48    32    46    1
    49    13    47    1
    50    22    48    1
    51    21    49    1
    52    14    50    1
    53    14    51    1
    54    14    52    1
    55    33    53    1
    56    27    54    1
    57    27    55    1
    58    29    56    1
    59    29    57    1
    60    31    58    1
    61    31    59    1
    62    31    60    1
@<TRIPOS>SUBSTRUCTURE
     1 RES1        1 GROUP             0 ****  ****    0  
@<TRIPOS>MOLECULE
3QQL:A:X03299
    40    41     1     0     0
SMALL
NO_CHARGES
****
Generated from the CSD

@<TRIPOS>ATOM
     1 N1      28.7005   4.4740  65.6900   N.2       1 RES1   0.0000
     2 N2      27.6385   3.7040  65.1330   N.pl3     1 RES1   0.0000
     3 C3      26.9045   4.5260  64.3100   C.2       1 RES1   0.0000
     4 C4      27.4675   5.7850  64.3160   C.2       1 RES1   0.0000
     5 C5      28.6375   5.7300  65.2190   C.2       1 RES1   0.0000
     6 C6      29.5595   6.8410  65.5450   C.2       1 RES1   0.0000
     7 N7      30.5735   6.6370  66.4109   N.am      1 RES1   0.0000
     8 N8      31.4876   7.6880  66.7579   N.3       1 RES1   0.0000
     9 O9      29.4015   7.9590  65.0250   O.2       1 RES1   0.0000
    10 C10     25.6395   4.1750  63.4780   C.3       1 RES1   0.0000
    11 C11     25.0134   5.4000  62.6561   C.3       1 RES1   0.0000
    12 C12     26.0755   6.5290  62.1861   C.3       1 RES1   0.0000
    13 C13     26.8905   6.9610  63.4970   C.3       1 RES1   0.0000
    14 C14     25.4714   7.8410  61.3681   C.3       1 RES1   0.0000
    15 C15     26.0635   7.8760  59.8621   C.3       1 RES1   0.0000
    16 C16     25.6745   6.5930  59.2312   C.3       1 RES1   0.0000
    17 C17     25.8335   9.1780  62.1231   C.3       1 RES1   0.0000
    18 C18     23.9134   7.8020  61.2531   C.3       1 RES1   0.0000
    19 H1      23.4759   7.7956  62.2503   H         1 RES1   0.0000
    20 H2      23.5674   8.6805  60.7105   H         1 RES1   0.0000
    21 H3      23.6113   6.9027  60.7183   H         1 RES1   0.0000
    22 H4      26.9160   9.2732  62.1938   H         1 RES1   0.0000
    23 H5      25.4297  10.0265  61.5727   H         1 RES1   0.0000
    24 H6      25.4048   9.1573  63.1239   H         1 RES1   0.0000
    25 H7      24.5889   6.5074  59.2221   H         1 RES1   0.0000
    26 H8      26.0497   6.5625  58.2093   H         1 RES1   0.0000
    27 H9      26.0990   5.7661  59.7985   H         1 RES1   0.0000
    28 H10     27.4559   2.7218  65.3121   H         1 RES1   0.0000
    29 H11     27.1481   7.9708  59.8857   H         1 RES1   0.0000
    30 H12     25.6380   8.7121  59.3092   H         1 RES1   0.0000
    31 H13     26.7841   6.0393  61.5198   H         1 RES1   0.0000
    32 H14     24.2664   5.8813  63.2855   H         1 RES1   0.0000
    33 H15     24.5330   4.9977  61.7654   H         1 RES1   0.0000
    34 H16     24.8781   3.8010  64.1609   H         1 RES1   0.0000
    35 H17     25.9068   3.3929  62.7689   H         1 RES1   0.0000
    36 H18     30.9755   8.4564  67.1791   H         1 RES1   0.0000
    37 H19     32.1731   7.3358  67.4185   H         1 RES1   0.0000
    38 H20     30.6929   5.7189  66.8268   H         1 RES1   0.0000
    39 H21     27.7185   7.5970  63.1873   H         1 RES1   0.0000
    40 H22     26.2199   7.5267  64.1421   H         1 RES1   0.0000
@<TRIPOS>BOND
     1     1     2    1
     2     1     5    2
     3     2     3    1
     4     3     4    2
     5     3    10    1
     6     4     5    1
     7     4    13    1
     8     5     6    1
     9     6     7   am
    10     6     9    2
    11     7     8    1
    12    10    11    1
    13    11    12    1
    14    12    13    1
    15    12    14    1
    16    14    15    1
    17    14    17    1
    18    14    18    1
    19    15    16    1
    20    18    19    1
    21    18    20    1
    22    18    21    1
    23    17    22    1
    24    17    23    1
    25    17    24    1
    26    16    25    1
    27    16    26    1
    28    16    27    1
    29     2    28    1
    30    15    29    1
    31    15    30    1
    32    12    31    1
    33    11    32    1
    34    11    33    1
    35    10    34    1
    36    10    35    1
    37     8    36    1
    38     8    37    1
    39     7    38    1
    40    13    39    1
    41    13    40    1
@<TRIPOS>SUBSTRUCTURE
     1 RES1        1 GROUP             0 ****  ****    0  
@<TRIPOS>MOLECULE
3RK7:A:08Z467
    37    39     1     0     0
SMALL
NO_CHARGES
****
Generated from the CSD

@<TRIPOS>ATOM
     1 C1      30.3937   7.3878  65.6031   C.2       1 RES1   0.0000
     2 N2      29.8257   6.1398  65.7001   N.pl3     1 RES1   0.0000
     3 C3      28.7157   5.6438  65.0561   C.2       1 RES1   0.0000
     4 N4      28.3577   4.3709  65.2871   N.2       1 RES1   0.0000
     5 C5      27.2757   4.0329  64.5681   C.2       1 RES1   0.0000
     6 C6      26.7897   5.0468  63.7652   C.2       1 RES1   0.0000
     7 S7      27.6847   6.4808  63.9282   S.3       1 RES1   0.0000
     8 N8      26.7757   2.8659  64.6211   N.pl3     1 RES1   0.0000
     9 C9      25.6207   4.9178  62.8502   C.2       1 RES1   0.0000
    10 C10     25.1697   6.0088  61.9382   C.2       1 RES1   0.0000
    11 C11     26.1467   6.7488  61.1572   C.2       1 RES1   0.0000
    12 C12     25.7457   7.7737  60.2693   C.2       1 RES1   0.0000
    13 C13     24.3657   8.0627  60.1493   C.2       1 RES1   0.0000
    14 N14     23.4418   7.3458  60.8942   N.2       1 RES1   0.0000
    15 C15     23.7977   6.3318  61.7782   C.2       1 RES1   0.0000
    16 O16     24.9637   3.7569  62.8322   O.2       1 RES1   0.0000
    17 C17     31.1257   7.8977  66.7401   C.2       1 RES1   0.0000
    18 C18     31.7487   9.1747  66.6881   C.2       1 RES1   0.0000
    19 C19     31.6657   9.9827  65.4981   C.2       1 RES1   0.0000
    20 C20     30.9427   9.4817  64.3691   C.2       1 RES1   0.0000
    21 C21     30.3187   8.2087  64.4181   C.2       1 RES1   0.0000
    22 C22     32.3337  11.3206  65.4581   C.2       1 RES1   0.0000
    23 O23     33.0037  11.7456  66.5521   O.2       1 RES1   0.0000
    24 N24     32.2917  12.0846  64.4051   N.am      1 RES1   0.0000
    25 H1      32.2933   9.5453  67.5553   H         1 RES1   0.0000
    26 H2      31.2009   7.2978  67.6458   H         1 RES1   0.0000
    27 H3      30.8710  10.0832  63.4642   H         1 RES1   0.0000
    28 H4      23.0344   5.7942  62.3388   H         1 RES1   0.0000
    29 H5      24.0298   8.8472  59.4728   H         1 RES1   0.0000
    30 H6      26.4828   8.3284  59.6906   H         1 RES1   0.0000
    31 H7      27.2045   6.5102  61.2574   H         1 RES1   0.0000
    32 H8      25.9568   2.6389  64.0660   H         1 RES1   0.0000
    33 H9      27.1952   2.1607  65.2186   H         1 RES1   0.0000
    34 H10     30.2886   5.4960  66.3337   H         1 RES1   0.0000
    35 H11     29.7744   7.8449  63.5479   H         1 RES1   0.0000
    36 H12     32.7568  12.9867  64.4138   H         1 RES1   0.0000
    37 H13     31.7939  11.7782  63.5753   H         1 RES1   0.0000
@<TRIPOS>BOND
     1     1     2    1
     2     1    17    2
     3     1    21    1
     4     2     3    1
     5     3     4    2
     6     3     7    1
     7     4     5    1
     8     5     6    2
     9     5     8    1
    10     6     7    1
    11     6     9    1
    12     9    10    1
    13     9    16    2
    14    10    11    2
    15    10    15    1
    16    11    12    1
    17    12    13    2
    18    13    14    1
    19    14    15    2
    20    17    18    1
    21    18    19    2
    22    19    20    1
    23    19    22    1
    24    20    21    2
    25    22    23    2
    26    22    24   am
    27    18    25    1
    28    17    26    1
    29    20    27    1
    30    15    28    1
    31    13    29    1
    32    12    30    1
    33    11    31    1
    34     8    32    1
    35     8    33    1
    36     2    34    1
    37    21    35    1
    38    24    36    1
    39    24    37    1
@<TRIPOS>SUBSTRUCTURE
     1 RES1        1 GROUP             0 ****  ****    0  
@<TRIPOS>MOLECULE
1PXJ:A:CK2500
    24    25     1     0     0
SMALL
NO_CHARGES
****
Generated from the CSD

@<TRIPOS>ATOM
     1 C1      25.7463  11.1538  61.7297   C.3       1 RES1   0.0000
     2 C2      26.1913   9.7588  62.1688   C.2       1 RES1   0.0000
     3 S3      26.6833   9.2439  63.6648   S.3       1 RES1   0.0000
     4 N4      26.2383   8.8229  61.3597   N.2       1 RES1   0.0000
     5 C5      26.6433   7.6389  61.8158   C.2       1 RES1   0.0000
     6 C6      26.6273   6.6709  60.7897   C.3       1 RES1   0.0000
     7 C7      26.9273   7.6149  63.0988   C.2       1 RES1   0.0000
     8 C8      27.3743   6.4979  63.9358   C.2       1 RES1   0.0000
     9 N9      26.8553   5.2849  63.7738   N.2       1 RES1   0.0000
    10 C10     28.3252   6.7499  64.9238   C.2       1 RES1   0.0000
    11 C11     28.7052   5.6639  65.6739   C.2       1 RES1   0.0000
    12 N12     28.1762   4.4309  65.4729   N.2       1 RES1   0.0000
    13 C13     27.2863   4.3589  64.5138   C.2       1 RES1   0.0000
    14 N14     26.8023   3.1849  64.2408   N.pl3     1 RES1   0.0000
    15 H1      26.5564  11.8623  61.8959   H         1 RES1   0.0000
    16 H2      25.4904  11.1368  60.6713   H         1 RES1   0.0000
    17 H3      24.8751  11.4560  62.3090   H         1 RES1   0.0000
    18 H4      27.2931   6.9825  59.9863   H         1 RES1   0.0000
    19 H5      26.9619   5.7142  61.1880   H         1 RES1   0.0000
    20 H6      25.6145   6.5688  60.4028   H         1 RES1   0.0000
    21 H7      28.7397   7.7431  65.0900   H         1 RES1   0.0000
    22 H8      29.4538   5.7966  66.4536   H         1 RES1   0.0000
    23 H9      27.0915   2.3778  64.7842   H         1 RES1   0.0000
    24 H10     26.1349   3.0745  63.4841   H         1 RES1   0.0000
@<TRIPOS>BOND
     1     1     2    1
     2     2     3    1
     3     2     4    2
     4     3     7    1
     5     4     5    1
     6     5     6    1
     7     5     7    2
     8     7     8    1
     9     8     9    2
    10     8    10    1
    11     9    13    1
    12    10    11    2
    13    11    12    1
    14    12    13    2
    15    13    14    1
    16     1    15    1
    17     1    16    1
    18     1    17    1
    19     6    18    1
    20     6    19    1
    21     6    20    1
    22    10    21    1
    23    11    22    1
    24    14    23    1
    25    14    24    1
@<TRIPOS>SUBSTRUCTURE
     1 RES1        1 GROUP             0 ****  ****    0  
@<TRIPOS>MOLECULE
6GUE:C:FB8301
    47    49     1     0     0
SMALL
NO_CHARGES
****
Generated from the CSD

@<TRIPOS>ATOM
     1 C1      24.9188   5.7259  62.7127   C.2       1 RES1   0.0000
     2 C2      30.9720   8.9268  65.7326   C.2       1 RES1   0.0000
     3 C3      25.9598   5.0579  63.5177   C.2       1 RES1   0.0000
     4 C4      25.8868   3.6909  63.7766   C.2       1 RES1   0.0000
     5 C5      29.9440   8.9578  63.5566   C.2       1 RES1   0.0000
     6 C6      26.8589   3.1569  64.5946   C.2       1 RES1   0.0000
     7 C7      27.8329   5.2139  64.8526   C.2       1 RES1   0.0000
     8 C8      29.4759   7.1359  65.0806   C.2       1 RES1   0.0000
     9 C9      29.3089   7.7548  63.8326   C.2       1 RES1   0.0000
    10 C10     30.7450   9.5488  64.5136   C.2       1 RES1   0.0000
    11 C11     30.5030  12.1107  63.2847   C.3       1 RES1   0.0000
    12 N12     23.0647   5.9779  61.6027   N.2       1 RES1   0.0000
    13 N13     27.8429   3.8819  65.1426   N.2       1 RES1   0.0000
    14 C14     23.5998   5.3779  62.6967   C.2       1 RES1   0.0000
    15 N15     28.8759   5.9049  65.3996   N.pl3     1 RES1   0.0000
    16 C16     23.4178   8.0908  60.3807   C.3       1 RES1   0.0000
    17 C17     23.8418   6.9949  61.2577   C.2       1 RES1   0.0000
    18 S18     31.6100  11.0488  64.1266   S.o2      1 RES1   0.0000
    19 O19     31.9850  11.6248  65.3696   O.2       1 RES1   0.0000
    20 O20     32.6480  10.6428  63.2097   O.2       1 RES1   0.0000
    21 C21     30.3370   7.7298  66.0136   C.2       1 RES1   0.0000
    22 N22     26.9069   5.8289  64.1006   N.2       1 RES1   0.0000
    23 N23     25.0528   6.7869  61.7977   N.pl3     1 RES1   0.0000
    24 C24     26.2938   7.5718  61.5407   C.3       1 RES1   0.0000
    25 C25     26.1598   8.9528  62.1457   C.3       1 RES1   0.0000
    26 C26     26.6359   7.5808  60.0667   C.3       1 RES1   0.0000
    27 H1      31.6440   9.3765  66.4620   H         1 RES1   0.0000
    28 H2      25.8170   8.0300  59.5067   H         1 RES1   0.0000
    29 H3      27.5445   8.1599  59.9085   H         1 RES1   0.0000
    30 H4      26.7924   6.5590  59.7241   H         1 RES1   0.0000
    31 H5      26.0047   8.8650  63.2200   H         1 RES1   0.0000
    32 H6      27.0684   9.5222  61.9555   H         1 RES1   0.0000
    33 H7      25.3099   9.4648  61.6969   H         1 RES1   0.0000
    34 H8      27.1086   7.0686  62.0593   H         1 RES1   0.0000
    35 H9      30.5086   7.2428  66.9724   H         1 RES1   0.0000
    36 H10     22.5659   8.6029  60.8256   H         1 RES1   0.0000
    37 H11     24.2395   8.7944  60.2558   H         1 RES1   0.0000
    38 H12     23.1331   7.6890  59.4094   H         1 RES1   0.0000
    39 H13     29.3023   5.4376  66.1933   H         1 RES1   0.0000
    40 H14     23.0809   4.7463  63.4162   H         1 RES1   0.0000
    41 H15     29.6478  12.3244  63.9242   H         1 RES1   0.0000
    42 H16     31.0112  13.0410  63.0354   H         1 RES1   0.0000
    43 H17     30.1610  11.6276  62.3706   H         1 RES1   0.0000
    44 H18     28.6780   7.2892  63.0769   H         1 RES1   0.0000
    45 H19     26.8253   2.0893  64.8066   H         1 RES1   0.0000
    46 H20     29.8108   9.4348  62.5867   H         1 RES1   0.0000
    47 H21     25.0975   3.0725  63.3519   H         1 RES1   0.0000
@<TRIPOS>BOND
     1     1     3    1
     2     1    14    2
     3     1    23    1
     4     2    10    2
     5     2    21    1
     6     3     4    2
     7     3    22    1
     8     4     6    1
     9     5     9    2
    10     5    10    1
    11     6    13    2
    12     7    13    1
    13     7    15    1
    14     7    22    2
    15     8     9    1
    16     8    15    1
    17     8    21    2
    18    10    18    1
    19    11    18    1
    20    12    14    1
    21    12    17    2
    22    16    17    1
    23    17    23    1
    24    18    19    2
    25    18    20    2
    26    23    24    1
    27    24    25    1
    28    24    26    1
    29     2    27    1
    30    26    28    1
    31    26    29    1
    32    26    30    1
    33    25    31    1
    34    25    32    1
    35    25    33    1
    36    24    34    1
    37    21    35    1
    38    16    36    1
    39    16    37    1
    40    16    38    1
    41    15    39    1
    42    14    40    1
    43    11    41    1
    44    11    42    1
    45    11    43    1
    46     9    44    1
    47     6    45    1
    48     5    46    1
    49     4    47    1
@<TRIPOS>SUBSTRUCTURE
     1 RES1        1 GROUP             0 ****  ****    0  
@<TRIPOS>MOLECULE
2VTA:A:LZ11301
    15    16     1     0     0
SMALL
NO_CHARGES
****
Generated from the CSD

@<TRIPOS>ATOM
     1 C1      26.6505   4.4300  64.2625   C.2       1 RES1   0.0000
     2 C2      27.3325   5.6500  64.3745   C.2       1 RES1   0.0000
     3 C3      26.8675   6.7380  63.6395   C.2       1 RES1   0.0000
     4 C4      25.7655   6.6120  62.8126   C.2       1 RES1   0.0000
     5 C5      25.1065   5.4010  62.7056   C.2       1 RES1   0.0000
     6 C6      25.5485   4.3090  63.4255   C.2       1 RES1   0.0000
     7 N7      27.3115   3.5470  65.0775   N.pl3     1 RES1   0.0000
     8 C8      28.3876   5.4130  65.2895   C.2       1 RES1   0.0000
     9 N9      28.3676   4.1370  65.6975   N.2       1 RES1   0.0000
    10 H1      25.4151   7.4713  62.2428   H         1 RES1   0.0000
    11 H2      25.0336   3.3535  63.3372   H         1 RES1   0.0000
    12 H3      27.3766   7.6976  63.7165   H         1 RES1   0.0000
    13 H4      24.2391   5.3087  62.0537   H         1 RES1   0.0000
    14 H5      29.1104   6.1599  65.6143   H         1 RES1   0.0000
    15 H6      27.0456   2.5754  65.2020   H         1 RES1   0.0000
@<TRIPOS>BOND
     1     1     2    1
     2     1     6    2
     3     1     7    1
     4     2     3    2
     5     2     8    1
     6     3     4    1
     7     4     5    2
     8     5     6    1
     9     7     9    1
    10     8     9    2
    11     4    10    1
    12     6    11    1
    13     3    12    1
    14     5    13    1
    15     8    14    1
    16     7    15    1
@<TRIPOS>SUBSTRUCTURE
     1 RES1        1 GROUP             0 ****  ****    0  
@<TRIPOS>MOLECULE
1H08:A:BWP300
    53    55     1     0     0
SMALL
NO_CHARGES
****
Generated from the CSD

@<TRIPOS>ATOM
     1 C1      31.4096  12.3828  64.5572   C.3       1 RES1   0.0000
     2 N2      28.6216   4.1509  65.4202   N.2       1 RES1   0.0000
     3 C3      27.5215   3.5369  64.9182   C.2       1 RES1   0.0000
     4 C4      28.8406   5.4249  65.0552   C.2       1 RES1   0.0000
     5 C5      26.9645   5.5659  63.7082   C.2       1 RES1   0.0000
     6 C6      26.6315   4.2219  64.0262   C.2       1 RES1   0.0000
     7 N7      28.0605   6.1229  64.2272   N.2       1 RES1   0.0000
     8 C8      26.0785  10.2288  61.0023   C.2       1 RES1   0.0000
     9 C9      25.5875   9.0999  60.2993   C.2       1 RES1   0.0000
    10 C10     25.6065   7.8179  60.9143   C.2       1 RES1   0.0000
    11 C11     26.1145   7.6559  62.2373   C.2       1 RES1   0.0000
    12 C12     26.5895  10.0849  62.3183   C.2       1 RES1   0.0000
    13 C13     32.1076   9.1659  66.2952   C.2       1 RES1   0.0000
    14 C14     31.5596   7.8619  66.4212   C.2       1 RES1   0.0000
    15 C15     26.6095   8.8049  62.9353   C.2       1 RES1   0.0000
    16 C16     30.6006   7.4039  65.4822   C.2       1 RES1   0.0000
    17 C17     31.6956  10.0279  65.2202   C.2       1 RES1   0.0000
    18 C18     30.7316   9.5599  64.2772   C.2       1 RES1   0.0000
    19 C19     30.1896   8.2629  64.4062   C.2       1 RES1   0.0000
    20 O20     32.2686  11.3238  65.1202   O.3       1 RES1   0.0000
    21 N21     26.1065   6.3109  62.7983   N.pl3     1 RES1   0.0000
    22 N22     30.0176   6.0659  65.6072   N.pl3     1 RES1   0.0000
    23 Br23    25.0785   3.3630  63.3153   Br        1 RES1   0.0000
    24 C24     32.2696  13.6028  64.1162   C.3       1 RES1   0.0000
    25 C25     33.3036  13.1828  63.0073   C.3       1 RES1   0.0000
    26 N26     33.1146  13.7138  61.5883   N.3       1 RES1   0.0000
    27 C27     31.7146  13.8138  61.0753   C.3       1 RES1   0.0000
    28 C28     33.9767  14.8678  61.2033   C.3       1 RES1   0.0000
    29 O29     32.9666  14.0908  65.2582   O.3       1 RES1   0.0000
    30 H1      35.0242  14.5806  61.2821   H         1 RES1   0.0000
    31 H2      33.7564  15.1592  60.1774   H         1 RES1   0.0000
    32 H3      33.7792  15.7065  61.8692   H         1 RES1   0.0000
    33 H4      33.5508  13.3743  65.6206   H         1 RES1   0.0000
    34 H5      33.2853  12.0956  62.9476   H         1 RES1   0.0000
    35 H6      34.2857  13.5114  63.3441   H         1 RES1   0.0000
    36 H7      26.9660  10.9545  62.8549   H         1 RES1   0.0000
    37 H8      25.2301   6.9526  60.3707   H         1 RES1   0.0000
    38 H9      25.1962   9.2143  59.2895   H         1 RES1   0.0000
    39 H10     32.8443   9.5153  67.0170   H         1 RES1   0.0000
    40 H11     31.8754   7.2144  67.2379   H         1 RES1   0.0000
    41 H12     26.0635  11.2102  60.5306   H         1 RES1   0.0000
    42 H13     27.3102   2.5057  65.1973   H         1 RES1   0.0000
    43 H14     31.1408  14.4834  61.7143   H         1 RES1   0.0000
    44 H15     31.7275  14.2044  60.0588   H         1 RES1   0.0000
    45 H16     31.2553  12.8264  61.0790   H         1 RES1   0.0000
    46 H17     27.0035   8.6968  63.9448   H         1 RES1   0.0000
    47 H18     30.4142  10.2036  63.4581   H         1 RES1   0.0000
    48 H19     29.4541   7.9106  63.6845   H         1 RES1   0.0000
    49 H20     25.3141   5.7632  62.4785   H         1 RES1   0.0000
    50 H21     30.5553   5.4539  66.2127   H         1 RES1   0.0000
    51 H22     31.6182  14.3842  63.7275   H         1 RES1   0.0000
    52 H23     30.6934  12.7031  65.3125   H         1 RES1   0.0000
    53 H24     30.8751  11.9898  63.6936   H         1 RES1   0.0000
@<TRIPOS>BOND
     1     1    20    1
     2     1    24    1
     3     2     3    2
     4     2     4    1
     5     3     6    1
     6     4     7    2
     7     4    22    1
     8     5     6    2
     9     5     7    1
    10     5    21    1
    11     6    23    1
    12     8     9    2
    13     8    12    1
    14     9    10    1
    15    10    11    2
    16    11    15    1
    17    11    21    1
    18    12    15    2
    19    13    14    2
    20    13    17    1
    21    14    16    1
    22    16    19    2
    23    16    22    1
    24    17    18    2
    25    17    20    1
    26    18    19    1
    27    24    25    1
    28    24    29    1
    29    25    26    1
    30    26    27    1
    31    26    28    1
    32    28    30    1
    33    28    31    1
    34    28    32    1
    35    29    33    1
    36    25    34    1
    37    25    35    1
    38    12    36    1
    39    10    37    1
    40     9    38    1
    41    13    39    1
    42    14    40    1
    43     8    41    1
    44     3    42    1
    45    27    43    1
    46    27    44    1
    47    27    45    1
    48    15    46    1
    49    18    47    1
    50    19    48    1
    51    21    49    1
    52    22    50    1
    53    24    51    1
    54     1    52    1
    55     1    53    1
@<TRIPOS>SUBSTRUCTURE
     1 RES1        1 GROUP             0 ****  ****    0  
@<TRIPOS>MOLECULE
4EZ7:A:STU301
    59    66     1     0     0
SMALL
NO_CHARGES
****
Generated from the CSD

@<TRIPOS>ATOM
     1 O1      26.6667  10.0719  63.1128   O.3       1 RES1   0.0000
     2 C2      28.1037   9.9089  63.3688   C.3       1 RES1   0.0000
     3 C3      29.0277  10.1609  62.1588   C.3       1 RES1   0.0000
     4 C4      28.1537  10.5909  61.0538   C.3       1 RES1   0.0000
     5 C5      27.2067   9.4659  60.7609   C.3       1 RES1   0.0000
     6 C6      26.1847   9.4289  61.9648   C.3       1 RES1   0.0000
     7 C7      25.0497  10.3639  61.6148   C.3       1 RES1   0.0000
     8 N8      25.7097   7.9840  62.1828   N.pl3     1 RES1   0.0000
     9 C9      26.3927   7.1890  63.0438   C.2       1 RES1   0.0000
    10 C10     27.5077   7.4520  63.8328   C.2       1 RES1   0.0000
    11 C11     28.0947   6.4490  64.7008   C.2       1 RES1   0.0000
    12 C12     27.4627   5.1020  64.7248   C.2       1 RES1   0.0000
    13 C13     26.3517   4.8220  63.9348   C.2       1 RES1   0.0000
    14 C14     25.7857   5.8710  63.0688   C.2       1 RES1   0.0000
    15 C15     24.6367   5.9110  62.1208   C.2       1 RES1   0.0000
    16 C16     24.5987   7.2090  61.5708   C.2       1 RES1   0.0000
    17 C17     23.5607   7.4920  60.6209   C.2       1 RES1   0.0000
    18 C18     22.6277   6.5260  60.2559   C.2       1 RES1   0.0000
    19 C19     22.6847   5.2370  60.8149   C.2       1 RES1   0.0000
    20 C20     23.7057   4.9300  61.7558   C.2       1 RES1   0.0000
    21 C21     25.9917   3.4460  64.1868   C.2       1 RES1   0.0000
    22 N22     26.8657   2.9400  65.0958   N.2       1 RES1   0.0000
    23 C23     27.7607   3.8810  65.4508   C.2       1 RES1   0.0000
    24 O24     28.7827   3.7400  66.3287   O.2       1 RES1   0.0000
    25 C25     29.3027   7.1130  65.4078   C.2       1 RES1   0.0000
    26 C26     29.3817   8.4699  64.9368   C.2       1 RES1   0.0000
    27 C27     30.4096   9.3409  65.4198   C.2       1 RES1   0.0000
    28 C28     31.3636   8.8739  66.3707   C.2       1 RES1   0.0000
    29 C29     31.2856   7.5260  66.8417   C.2       1 RES1   0.0000
    30 C30     30.2546   6.6590  66.3557   C.2       1 RES1   0.0000
    31 N31     28.2847   8.6139  63.9838   N.pl3     1 RES1   0.0000
    32 O32     27.8947   8.2399  60.7059   O.3       1 RES1   0.0000
    33 C33     27.5367   7.2120  59.8259   C.3       1 RES1   0.0000
    34 N34     28.9617  11.0059  59.9049   N.3       1 RES1   0.0000
    35 C35     29.1797  12.4459  59.9079   C.3       1 RES1   0.0000
    36 H1      32.0089   7.1595  67.5686   H         1 RES1   0.0000
    37 H2      30.2007   5.6342  66.7201   H         1 RES1   0.0000
    38 H3      27.6098   7.5704  58.8002   H         1 RES1   0.0000
    39 H4      28.2084   6.3659  59.9636   H         1 RES1   0.0000
    40 H5      26.5134   6.9000  60.0293   H         1 RES1   0.0000
    41 H6      28.4803  10.7456  59.0501   H         1 RES1   0.0000
    42 H7      29.7002  12.7323  60.8206   H         1 RES1   0.0000
    43 H8      29.7819  12.7237  59.0441   H         1 RES1   0.0000
    44 H9      28.2200  12.9584  59.8612   H         1 RES1   0.0000
    45 H10     23.5019   8.4843  60.1761   H         1 RES1   0.0000
    46 H11     21.8497   6.7696  59.5339   H         1 RES1   0.0000
    47 H12     21.9541   4.4813  60.5301   H         1 RES1   0.0000
    48 H13     23.7638   3.9338  62.1919   H         1 RES1   0.0000
    49 H14     25.1637   2.9077  63.7280   H         1 RES1   0.0000
    50 H15     30.4633  10.3669  65.0586   H         1 RES1   0.0000
    51 H16     32.1455   9.5384  66.7355   H         1 RES1   0.0000
    52 H17     28.3702  10.6493  64.1216   H         1 RES1   0.0000
    53 H18     29.5540   9.2464  61.8893   H         1 RES1   0.0000
    54 H19     29.7511  10.9406  62.3927   H         1 RES1   0.0000
    55 H20     27.5727  11.4481  61.3909   H         1 RES1   0.0000
    56 H21     26.6816   9.6475  59.8243   H         1 RES1   0.0000
    57 H22     25.4445  11.3627  61.4350   H         1 RES1   0.0000
    58 H23     24.5474  10.0052  60.7176   H         1 RES1   0.0000
    59 H24     24.3395  10.3974  62.4397   H         1 RES1   0.0000
@<TRIPOS>BOND
     1     1     2    1
     2     1     6    1
     3     2     3    1
     4     2    31    1
     5     3     4    1
     6     4     5    1
     7     4    34    1
     8     5     6    1
     9     5    32    1
    10     6     7    1
    11     6     8    1
    12     8     9    1
    13     8    16    1
    14     9    10    2
    15     9    14    1
    16    10    11    1
    17    10    31    1
    18    11    12    2
    19    11    25    1
    20    12    13    1
    21    12    23    1
    22    13    14    2
    23    13    21    1
    24    14    15    1
    25    15    16    2
    26    15    20    1
    27    16    17    1
    28    17    18    2
    29    18    19    1
    30    19    20    2
    31    21    22    2
    32    22    23    1
    33    23    24    2
    34    25    26    2
    35    25    30    1
    36    26    27    1
    37    26    31    1
    38    27    28    2
    39    28    29    1
    40    29    30    2
    41    32    33    1
    42    34    35    1
    43    29    36    1
    44    30    37    1
    45    33    38    1
    46    33    39    1
    47    33    40    1
    48    34    41    1
    49    35    42    1
    50    35    43    1
    51    35    44    1
    52    17    45    1
    53    18    46    1
    54    19    47    1
    55    20    48    1
    56    21    49    1
    57    27    50    1
    58    28    51    1
    59     2    52    1
    60     3    53    1
    61     3    54    1
    62     4    55    1
    63     5    56    1
    64     7    57    1
    65     7    58    1
    66     7    59    1
@<TRIPOS>SUBSTRUCTURE
     1 RES1        1 GROUP             0 ****  ****    0  
@<TRIPOS>MOLECULE
1H01:A:FBL302
    53    55     1     0     0
SMALL
NO_CHARGES
****
Generated from the CSD

@<TRIPOS>ATOM
     1 C1      30.6803  12.3553  63.8264   C.3       1 RES1   0.0000
     2 N2      28.2124   4.0791  65.1364   N.2       1 RES1   0.0000
     3 C3      27.1114   3.4401  64.6494   C.2       1 RES1   0.0000
     4 C4      28.4044   5.3461  64.7614   C.2       1 RES1   0.0000
     5 C5      26.5074   5.4431  63.4434   C.2       1 RES1   0.0000
     6 C6      26.1864   4.0911  63.7624   C.2       1 RES1   0.0000
     7 N7      27.6024   6.0201  63.9444   N.2       1 RES1   0.0000
     8 C8      25.9924  10.2732  61.1975   C.2       1 RES1   0.0000
     9 C9      25.6395   9.2452  60.2895   C.2       1 RES1   0.0000
    10 C10     25.5305   7.9022  60.7405   C.2       1 RES1   0.0000
    11 C11     25.7684   7.5852  62.1055   C.2       1 RES1   0.0000
    12 C12     26.2324   9.9542  62.5515   C.2       1 RES1   0.0000
    13 C13     30.2154   9.3582  63.6394   C.2       1 RES1   0.0000
    14 C14     29.7424   8.0612  63.8984   C.2       1 RES1   0.0000
    15 C15     26.1214   8.6312  62.9975   C.2       1 RES1   0.0000
    16 C16     30.1314   7.3602  65.0814   C.2       1 RES1   0.0000
    17 C17     31.1053   9.9932  64.5564   C.2       1 RES1   0.0000
    18 C18     31.5053   9.3052  65.7334   C.2       1 RES1   0.0000
    19 C19     31.0263   7.9922  65.9954   C.2       1 RES1   0.0000
    20 O20     31.5633  11.2883  64.2934   O.3       1 RES1   0.0000
    21 N21     25.6594   6.2101  62.5665   N.pl3     1 RES1   0.0000
    22 N22     29.5764   6.0171  65.2644   N.pl3     1 RES1   0.0000
    23 Cl23    25.1065   6.6632  59.5785   Cl        1 RES1   0.0000
    24 Cl24    26.6844  11.1893  63.6974   Cl        1 RES1   0.0000
    25 C25     31.4413  13.6473  63.4814   C.3       1 RES1   0.0000
    26 C26     32.6963  13.5423  62.5215   C.3       1 RES1   0.0000
    27 N27     32.4493  13.3943  61.0235   N.3       1 RES1   0.0000
    28 C28     33.6273  13.7333  60.1785   C.3       1 RES1   0.0000
    29 C29     31.2683  14.1843  60.5515   C.3       1 RES1   0.0000
    30 O30     31.8473  14.1773  64.7284   O.3       1 RES1   0.0000
    31 H1      26.3089   8.4014  64.0453   H         1 RES1   0.0000
    32 H2      24.8522   5.7074  62.2117   H         1 RES1   0.0000
    33 H3      30.1376   5.4339  65.8768   H         1 RES1   0.0000
    34 H4      31.3432   7.4679  66.8957   H         1 RES1   0.0000
    35 H5      33.2747  12.6764  62.8402   H         1 RES1   0.0000
    36 H6      33.2874  14.4458  62.6633   H         1 RES1   0.0000
    37 H7      30.7341  14.3444  63.0345   H         1 RES1   0.0000
    38 H8      32.1821   9.7858  66.4384   H         1 RES1   0.0000
    39 H9      34.4579  13.0767  60.4334   H         1 RES1   0.0000
    40 H10     33.3704  13.6027  59.1283   H         1 RES1   0.0000
    41 H11     33.9153  14.7685  60.3557   H         1 RES1   0.0000
    42 H12     31.4315  15.2407  60.7597   H         1 RES1   0.0000
    43 H13     31.1407  14.0411  59.4795   H         1 RES1   0.0000
    44 H14     30.3736  13.8457  61.0720   H         1 RES1   0.0000
    45 H15     29.0698   7.5831  63.1877   H         1 RES1   0.0000
    46 H16     29.9022   9.8804  62.7366   H         1 RES1   0.0000
    47 H17     32.4305  13.5214  65.1927   H         1 RES1   0.0000
    48 H18     26.0780  11.3029  60.8534   H         1 RES1   0.0000
    49 H19     25.4514   9.4844  59.2439   H         1 RES1   0.0000
    50 H20     25.3061   3.5891  63.3638   H         1 RES1   0.0000
    51 H21     29.9562  12.5759  64.6093   H         1 RES1   0.0000
    52 H22     30.1578  12.0102  62.9354   H         1 RES1   0.0000
    53 H23     26.9273   2.4070  64.9406   H         1 RES1   0.0000
@<TRIPOS>BOND
     1     1    20    1
     2     1    25    1
     3     2     3    2
     4     2     4    1
     5     3     6    1
     6     4     7    2
     7     4    22    1
     8     5     6    2
     9     5     7    1
    10     5    21    1
    11     8     9    2
    12     8    12    1
    13     9    10    1
    14    10    11    2
    15    10    23    1
    16    11    15    1
    17    11    21    1
    18    12    15    2
    19    12    24    1
    20    13    14    2
    21    13    17    1
    22    14    16    1
    23    16    19    2
    24    16    22    1
    25    17    18    2
    26    17    20    1
    27    18    19    1
    28    25    26    1
    29    25    30    1
    30    26    27    1
    31    27    28    1
    32    27    29    1
    33    15    31    1
    34    21    32    1
    35    22    33    1
    36    19    34    1
    37    26    35    1
    38    26    36    1
    39    25    37    1
    40    18    38    1
    41    28    39    1
    42    28    40    1
    43    28    41    1
    44    29    42    1
    45    29    43    1
    46    29    44    1
    47    14    45    1
    48    13    46    1
    49    30    47    1
    50     8    48    1
    51     9    49    1
    52     6    50    1
    53     1    51    1
    54     1    52    1
    55     3    53    1
@<TRIPOS>SUBSTRUCTURE
     1 RES1        1 GROUP             0 ****  ****    0  
@<TRIPOS>MOLECULE
1H00:A:FCP1400
    53    55     1     0     0
SMALL
NO_CHARGES
****
Generated from the CSD

@<TRIPOS>ATOM
     1 C1      30.5522   7.7690  66.5303   C.2       1 RES1   0.0000
     2 C2      27.0613   3.2500  64.7663   C.2       1 RES1   0.0000
     3 C3      28.3553   5.1510  64.8993   C.2       1 RES1   0.0000
     4 C4      27.4503   5.8210  64.0053   C.2       1 RES1   0.0000
     5 C5      26.3323   5.0580  63.5352   C.2       1 RES1   0.0000
     6 C6      30.1603   7.1120  65.3323   C.2       1 RES1   0.0000
     7 C7      30.3912   7.7570  64.0733   C.2       1 RES1   0.0000
     8 C8      30.9942   9.0310  64.0193   C.2       1 RES1   0.0000
     9 C9      31.3822   9.6900  65.2163   C.2       1 RES1   0.0000
    10 N10     26.1634   3.7770  63.9313   N.2       1 RES1   0.0000
    11 N11     28.1363   3.8700  65.2623   N.2       1 RES1   0.0000
    12 N12     25.3314   5.5930  62.6202   N.pl3     1 RES1   0.0000
    13 N13     29.5403   5.7960  65.4473   N.pl3     1 RES1   0.0000
    14 C14     31.1592   9.0490  66.4773   C.2       1 RES1   0.0000
    15 O15     31.9642  10.9440  65.0483   O.3       1 RES1   0.0000
    16 C16     31.2232  12.1821  64.8583   C.3       1 RES1   0.0000
    17 C17     23.6884   9.2990  61.0392   C.2       1 RES1   0.0000
    18 C18     23.0094   8.0640  60.9041   C.2       1 RES1   0.0000
    19 C19     23.5734   6.8730  61.4332   C.2       1 RES1   0.0000
    20 C20     24.8364   6.8990  62.1122   C.2       1 RES1   0.0000
    21 C21     24.9344   9.3550  61.7032   C.2       1 RES1   0.0000
    22 C22     25.5174   8.1770  62.2392   C.2       1 RES1   0.0000
    23 F23     22.8804   5.7020  61.2782   F         1 RES1   0.0000
    24 F24     26.7193   8.3160  62.8622   F         1 RES1   0.0000
    25 C25     32.0952  13.4341  64.6283   C.3       1 RES1   0.0000
    26 C26     33.2922  13.6551  65.5833   C.3       1 RES1   0.0000
    27 N27     33.2102  14.8441  66.4923   N.3       1 RES1   0.0000
    28 C28     33.6072  16.1161  65.8293   C.3       1 RES1   0.0000
    29 C29     34.0042  14.6481  67.7404   C.3       1 RES1   0.0000
    30 O30     32.5092  13.4931  63.2652   O.3       1 RES1   0.0000
    31 H1      25.4509  10.3084  61.8044   H         1 RES1   0.0000
    32 H2      30.3855   7.2872  67.4926   H         1 RES1   0.0000
    33 H3      23.2494  10.2079  60.6304   H         1 RES1   0.0000
    34 H4      22.0493   8.0272  60.3916   H         1 RES1   0.0000
    35 H5      30.6155  12.3519  65.7458   H         1 RES1   0.0000
    36 H6      30.5745  12.0583  63.9924   H         1 RES1   0.0000
    37 H7      30.0636   5.1785  66.0597   H         1 RES1   0.0000
    38 H8      24.8072   4.8341  62.1964   H         1 RES1   0.0000
    39 H9      32.9502  16.3039  64.9814   H         1 RES1   0.0000
    40 H10     33.5258  16.9369  66.5404   H         1 RES1   0.0000
    41 H11     34.6361  16.0382  65.4810   H         1 RES1   0.0000
    42 H12     31.1629   9.5111  63.0565   H         1 RES1   0.0000
    43 H13     31.4570   9.5467  67.3990   H         1 RES1   0.0000
    44 H14     35.0502  14.4874  67.4837   H         1 RES1   0.0000
    45 H15     33.9165  15.5329  68.3691   H         1 RES1   0.0000
    46 H16     33.6253  13.7809  68.2792   H         1 RES1   0.0000
    47 H17     30.0985   7.2590  63.1501   H         1 RES1   0.0000
    48 H18     31.7096  13.5384  62.6781   H         1 RES1   0.0000
    49 H19     27.6065   6.8549  63.7012   H         1 RES1   0.0000
    50 H20     34.1869  13.7663  64.9725   H         1 RES1   0.0000
    51 H21     33.3865  12.7674  66.2070   H         1 RES1   0.0000
    52 H22     26.9030   2.2170  65.0724   H         1 RES1   0.0000
    53 H23     31.4352  14.2876  64.7760   H         1 RES1   0.0000
@<TRIPOS>BOND
     1     1     6    2
     2     1    14    1
     3     2    10    2
     4     2    11    1
     5     3     4    1
     6     3    11    2
     7     3    13    1
     8     4     5    2
     9     5    10    1
    10     5    12    1
    11     6     7    1
    12     6    13    1
    13     7     8    2
    14     8     9    1
    15     9    14    2
    16     9    15    1
    17    12    20    1
    18    15    16    1
    19    16    25    1
    20    17    18    2
    21    17    21    1
    22    18    19    1
    23    19    20    2
    24    19    23    1
    25    20    22    1
    26    21    22    2
    27    22    24    1
    28    25    26    1
    29    25    30    1
    30    26    27    1
    31    27    28    1
    32    27    29    1
    33    21    31    1
    34     1    32    1
    35    17    33    1
    36    18    34    1
    37    16    35    1
    38    16    36    1
    39    13    37    1
    40    12    38    1
    41    28    39    1
    42    28    40    1
    43    28    41    1
    44     8    42    1
    45    14    43    1
    46    29    44    1
    47    29    45    1
    48    29    46    1
    49     7    47    1
    50    30    48    1
    51     4    49    1
    52    26    50    1
    53    26    51    1
    54     2    52    1
    55    25    53    1
@<TRIPOS>SUBSTRUCTURE
     1 RES1        1 GROUP             0 ****  ****    0  
@<TRIPOS>MOLECULE
2C5N:A:CK81297
    84    88     1     0     0
SMALL
NO_CHARGES
****
Generated from the CSD

@<TRIPOS>ATOM
     1 C1      26.6434   3.3561  64.4763   C.2       1 RES1   0.0000
     2 N2      27.6624   3.9881  65.0753   N.2       1 RES1   0.0000
     3 C3      27.9304   5.2612  64.6693   C.2       1 RES1   0.0000
     4 N4      27.2104   5.8772  63.7302   N.2       1 RES1   0.0000
     5 C5      26.1784   5.3072  63.1402   C.2       1 RES1   0.0000
     6 C6      25.8494   4.0081  63.5302   C.2       1 RES1   0.0000
     7 C7      25.4834   6.0432  62.1812   C.2       1 RES1   0.0000
     8 C8      24.3224   5.4492  61.5191   C.2       1 RES1   0.0000
     9 N9      23.7544   6.2562  60.6141   N.2       1 RES1   0.0000
    10 C10     24.4054   7.4173  60.6021   C.2       1 RES1   0.0000
    11 S11     25.7454   7.6143  61.6261   S.3       1 RES1   0.0000
    12 C12     23.7204   4.0991  61.6961   C.3       1 RES1   0.0000
    13 C13     23.9444   8.4663  59.6280   C.3       1 RES1   0.0000
    14 N14     29.0004   5.9192  65.1913   N.pl3     1 RES1   0.0000
    15 C15     29.5334   7.1573  64.9863   C.2       1 RES1   0.0000
    16 C16     30.6375   7.4483  65.7724   C.2       1 RES1   0.0000
    17 C17     31.2925   8.6673  65.7203   C.2       1 RES1   0.0000
    18 C18     30.8565   9.6333  64.8373   C.2       1 RES1   0.0000
    19 C19     29.7485   9.3613  64.0393   C.2       1 RES1   0.0000
    20 C20     29.0704   8.1423  64.1203   C.2       1 RES1   0.0000
    21 N21     31.5155  10.8214  64.8033   N.pl3     1 RES1   0.0000
    22 C22     31.0925  11.8814  63.9023   C.3       1 RES1   0.0000
    23 C23     32.6655  11.0514  65.6673   C.3       1 RES1   0.0000
    24 C24     26.5634   3.7141  64.7263   C.2       1 RES1   0.0000
    25 N25     27.6114   4.2872  65.3193   N.2       1 RES1   0.0000
    26 C26     28.0054   5.5122  64.9253   C.2       1 RES1   0.0000
    27 N27     27.3974   6.1692  63.9383   N.2       1 RES1   0.0000
    28 C28     26.3554   5.6472  63.3162   C.2       1 RES1   0.0000
    29 C29     25.9014   4.3912  63.7092   C.2       1 RES1   0.0000
    30 C30     25.7204   6.3382  62.2942   C.2       1 RES1   0.0000
    31 C31     25.9764   7.6673  61.6881   C.2       1 RES1   0.0000
    32 N32     25.0854   7.9553  60.7161   N.2       1 RES1   0.0000
    33 C33     24.2494   6.9302  60.5701   C.2       1 RES1   0.0000
    34 S34     24.4114   5.5972  61.5871   S.3       1 RES1   0.0000
    35 C35     26.9904   8.7333  61.9302   C.3       1 RES1   0.0000
    36 C36     23.1364   6.9642  59.5580   C.3       1 RES1   0.0000
    37 N37     29.0814   6.0802  65.5173   N.pl3     1 RES1   0.0000
    38 C38     29.5825   7.2933  65.1783   C.2       1 RES1   0.0000
    39 C39     30.6795   7.7773  65.8754   C.2       1 RES1   0.0000
    40 C40     31.2195   9.0223  65.5803   C.2       1 RES1   0.0000
    41 C41     30.6635   9.7883  64.5633   C.2       1 RES1   0.0000
    42 C42     29.5554   9.3163  63.8753   C.2       1 RES1   0.0000
    43 C43     29.0184   8.0693  64.1763   C.2       1 RES1   0.0000
    44 N44     31.1615  11.0054  64.2413   N.pl3     1 RES1   0.0000
    45 C45     30.5205  11.7794  63.1832   C.3       1 RES1   0.0000
    46 C46     32.3085  11.5414  64.9603   C.3       1 RES1   0.0000
    47 H1      24.9824   3.5079  63.1012   H         1 RES1   0.0000
    48 H2      26.2295   2.7249  65.0361   H         1 RES1   0.0000
    49 H3      33.4398  10.3191  65.4436   H         1 RES1   0.0000
    50 H4      33.0538  12.0542  65.4956   H         1 RES1   0.0000
    51 H5      32.3626  10.9528  66.7087   H         1 RES1   0.0000
    52 H6      30.0665  12.1651  64.1319   H         1 RES1   0.0000
    53 H7      31.7443  12.7449  64.0264   H         1 RES1   0.0000
    54 H8      31.1500  11.5281  62.8738   H         1 RES1   0.0000
    55 H9      26.4314   2.3188  64.7311   H         1 RES1   0.0000
    56 H10     25.0354   3.9434  63.2240   H         1 RES1   0.0000
    57 H11     29.4021  10.1165  63.3353   H         1 RES1   0.0000
    58 H12     28.1861   7.9648  63.5100   H         1 RES1   0.0000
    59 H13     29.5097   5.3730  65.8787   H         1 RES1   0.0000
    60 H14     32.1442   8.8616  66.3706   H         1 RES1   0.0000
    61 H15     31.0048   6.6871  66.4591   H         1 RES1   0.0000
    62 H16     22.9063   8.7224  59.8347   H         1 RES1   0.0000
    63 H17     24.5650   9.3552  59.7311   H         1 RES1   0.0000
    64 H18     24.0280   8.0809  58.6129   H         1 RES1   0.0000
    65 H19     23.4022   3.9763  62.7303   H         1 RES1   0.0000
    66 H20     22.8598   3.9961  61.0368   H         1 RES1   0.0000
    67 H21     24.4589   3.3373  61.4506   H         1 RES1   0.0000
    68 H22     33.1584  10.8714  64.8391   H         1 RES1   0.0000
    69 H23     32.5604  12.5230  64.5617   H         1 RES1   0.0000
    70 H24     32.0646  11.6307  66.0179   H         1 RES1   0.0000
    71 H25     29.4834  11.9735  63.4528   H         1 RES1   0.0000
    72 H26     31.0456  12.7250  63.0562   H         1 RES1   0.0000
    73 H27     30.5542  11.2174  62.2510   H         1 RES1   0.0000
    74 H28     29.1031   9.9260  63.0946   H         1 RES1   0.0000
    75 H29     31.1235   7.1728  66.6649   H         1 RES1   0.0000
    76 H30     28.1543   7.7016  63.6249   H         1 RES1   0.0000
    77 H31     29.5420   5.5660  66.2614   H         1 RES1   0.0000
    78 H32     23.5562   7.0871  58.5607   H         1 RES1   0.0000
    79 H33     22.5758   6.0317  59.6034   H         1 RES1   0.0000
    80 H34     22.4716   7.7984  59.7774   H         1 RES1   0.0000
    81 H35     32.0738   9.3960  66.1428   H         1 RES1   0.0000
    82 H36     27.9879   8.3306  61.7610   H         1 RES1   0.0000
    83 H37     26.8138   9.5639  61.2484   H         1 RES1   0.0000
    84 H38     26.9100   9.0840  62.9580   H         1 RES1   0.0000
@<TRIPOS>BOND
     1     1     2    2
     2     1     6    1
     3    24    25    2
     4    24    29    1
     5     2     3    1
     6    25    26    1
     7     3     4    2
     8     3    14    1
     9    26    27    2
    10    26    37    1
    11     4     5    1
    12    27    28    1
    13     5     6    2
    14     5     7    1
    15    28    29    2
    16    28    30    1
    17     7     8    2
    18     7    11    1
    19    30    31    2
    20    30    34    1
    21     8     9    1
    22     8    12    1
    23    31    32    1
    24    31    35    1
    25     9    10    2
    26    32    33    2
    27    10    11    1
    28    10    13    1
    29    33    34    1
    30    33    36    1
    31    14    15    1
    32    37    38    1
    33    15    16    2
    34    15    20    1
    35    38    39    2
    36    38    43    1
    37    16    17    1
    38    39    40    1
    39    17    18    2
    40    40    41    2
    41    18    19    1
    42    18    21    1
    43    41    42    1
    44    41    44    1
    45    19    20    2
    46    42    43    2
    47    21    22    1
    48    21    23    1
    49    44    45    1
    50    44    46    1
    51     6    47    1
    52    24    48    1
    53    23    49    1
    54    23    50    1
    55    23    51    1
    56    22    52    1
    57    22    53    1
    58    22    54    1
    59     1    55    1
    60    29    56    1
    61    19    57    1
    62    20    58    1
    63    14    59    1
    64    17    60    1
    65    16    61    1
    66    13    62    1
    67    13    63    1
    68    13    64    1
    69    12    65    1
    70    12    66    1
    71    12    67    1
    72    46    68    1
    73    46    69    1
    74    46    70    1
    75    45    71    1
    76    45    72    1
    77    45    73    1
    78    42    74    1
    79    39    75    1
    80    43    76    1
    81    37    77    1
    82    36    78    1
    83    36    79    1
    84    36    80    1
    85    40    81    1
    86    35    82    1
    87    35    83    1
    88    35    84    1
@<TRIPOS>SUBSTRUCTURE
     1 RES1        1 GROUP             0 ****  ****    0  
@<TRIPOS>MOLECULE
6Q3C:A:BYZ302
     9     9     1     0     0
SMALL
NO_CHARGES
****
Generated from the CSD

@<TRIPOS>ATOM
     1 Br1     25.5881   4.2101  62.8954   Br        1 RES1   0.0000
     2 C2      26.9211   4.3191  64.2134   C.2       1 RES1   0.0000
     3 C3      27.8021   3.3281  64.6094   C.2       1 RES1   0.0000
     4 N4      28.6431   3.8251  65.5294   N.pl3     1 RES1   0.0000
     5 N5      28.2531   5.0881  65.7954   N.2       1 RES1   0.0000
     6 C6      27.2371   5.4271  64.9904   C.2       1 RES1   0.0000
     7 H1      26.7461   6.3984  64.9518   H         1 RES1   0.0000
     8 H2      29.4294   3.3390  65.9486   H         1 RES1   0.0000
     9 H3      27.8114   2.3060  64.2336   H         1 RES1   0.0000
@<TRIPOS>BOND
     1     1     2    1
     2     2     3    2
     3     2     6    1
     4     3     4    1
     5     4     5    1
     6     5     6    2
     7     6     7    1
     8     4     8    1
     9     3     9    1
@<TRIPOS>SUBSTRUCTURE
     1 RES1        1 GROUP             0 ****  ****    0  
@<TRIPOS>MOLECULE
6Q3B:A:PYZ302
     9     9     1     0     0
SMALL
NO_CHARGES
****
Generated from the CSD

@<TRIPOS>ATOM
     1 N1      28.4147   4.0349  65.5115   N.2       1 RES1   0.0000
     2 N2      27.4047   3.3640  64.9105   N.pl3     1 RES1   0.0000
     3 C3      26.6997   4.1719  64.1064   C.2       1 RES1   0.0000
     4 C4      27.3077   5.3909  64.1714   C.2       1 RES1   0.0000
     5 I5      26.7627   7.0459  63.0894   I         1 RES1   0.0000
     6 C6      28.3557   5.2779  65.0865   C.2       1 RES1   0.0000
     7 H1      27.2070   2.3783  65.0503   H         1 RES1   0.0000
     8 H2      25.8204   3.9086  63.5204   H         1 RES1   0.0000
     9 H3      29.0159   6.0862  65.3973   H         1 RES1   0.0000
@<TRIPOS>BOND
     1     1     2    1
     2     1     6    2
     3     2     3    1
     4     3     4    2
     5     4     5    1
     6     4     6    1
     7     2     7    1
     8     3     8    1
     9     6     9    1
@<TRIPOS>SUBSTRUCTURE
     1 RES1        1 GROUP             0 ****  ****    0  
@<TRIPOS>MOLECULE
1KE9:A:LS5299
    40    42     1     0     0
SMALL
NO_CHARGES
****
Generated from the CSD

@<TRIPOS>ATOM
     1 N1      26.6857   3.3660  64.4610   N.am      1 RES1   0.0000
     2 C2      27.6218   4.2491  64.8810   C.2       1 RES1   0.0000
     3 C3      27.4127   5.5171  64.1560   C.2       1 RES1   0.0000
     4 C4      25.4817   6.1791  62.5610   C.2       1 RES1   0.0000
     5 C5      24.2947   5.7051  61.9460   C.2       1 RES1   0.0000
     6 C6      23.9137   4.3631  62.1240   C.2       1 RES1   0.0000
     7 C7      24.6867   3.4911  62.9160   C.2       1 RES1   0.0000
     8 C8      25.8267   3.9821  63.5750   C.2       1 RES1   0.0000
     9 C9      26.2157   5.2841  63.3810   C.2       1 RES1   0.0000
    10 O10     28.4978   4.0811  65.7180   O.2       1 RES1   0.0000
    11 C11     28.1998   6.6061  64.2120   C.2       1 RES1   0.0000
    12 N12     29.4198   6.5881  65.0450   N.pl3     1 RES1   0.0000
    13 C13     30.3088   7.6061  65.0990   C.2       1 RES1   0.0000
    14 C14     31.2359   7.5781  66.1470   C.2       1 RES1   0.0000
    15 C15     32.2449   8.5451  66.2300   C.2       1 RES1   0.0000
    16 C16     32.3039   9.5631  65.2690   C.2       1 RES1   0.0000
    17 C17     31.3379   9.6371  64.2630   C.2       1 RES1   0.0000
    18 C18     30.3508   8.6611  64.1700   C.2       1 RES1   0.0000
    19 S19     33.6549  10.7182  65.3670   S.o2      1 RES1   0.0000
    20 O20     33.3309  12.0212  64.8450   O.2       1 RES1   0.0000
    21 O21     34.7680   9.9891  64.8840   O.2       1 RES1   0.0000
    22 N22     33.8059  10.9482  66.9880   N.2       1 RES1   0.0000
    23 C23     32.8769  11.7202  67.6869   C.2       1 RES1   0.0000
    24 N24     32.1369  12.6902  67.1100   N.pl3     1 RES1   0.0000
    25 N25     32.6889  11.5142  68.9989   N.pl3     1 RES1   0.0000
    26 H1      32.9777   8.5064  67.0346   H         1 RES1   0.0000
    27 H2      31.3574  10.4602  63.5502   H         1 RES1   0.0000
    28 H3      29.6082   8.7142  63.3752   H         1 RES1   0.0000
    29 H4      24.4029   2.4446  63.0167   H         1 RES1   0.0000
    30 H5      23.6840   6.3742  61.3416   H         1 RES1   0.0000
    31 H6      23.0093   3.9930  61.6434   H         1 RES1   0.0000
    32 H7      31.1719   6.7979  66.9040   H         1 RES1   0.0000
    33 H8      26.6251   2.3961  64.7541   H         1 RES1   0.0000
    34 H9      25.8205   7.2027  62.4078   H         1 RES1   0.0000
    35 H10     32.0137  12.0747  69.5090   H         1 RES1   0.0000
    36 H11     33.2219  10.7979  69.4816   H         1 RES1   0.0000
    37 H12     27.9387   7.4985  63.6451   H         1 RES1   0.0000
    38 H13     29.6014   5.7642  65.6094   H         1 RES1   0.0000
    39 H14     31.4750  13.2220  67.6661   H         1 RES1   0.0000
    40 H15     32.2423  12.8879  66.1200   H         1 RES1   0.0000
@<TRIPOS>BOND
     1     1     2   am
     2     1     8    1
     3     2     3    1
     4     2    10    2
     5     3     9    1
     6     3    11    2
     7     4     5    1
     8     4     9    2
     9     5     6    2
    10     6     7    1
    11     7     8    2
    12     8     9    1
    13    11    12    1
    14    12    13    1
    15    13    14    2
    16    13    18    1
    17    14    15    1
    18    15    16    2
    19    16    17    1
    20    16    19    1
    21    17    18    2
    22    19    20    2
    23    19    21    2
    24    19    22    1
    25    22    23    2
    26    23    24    1
    27    23    25    1
    28    15    26    1
    29    17    27    1
    30    18    28    1
    31     7    29    1
    32     5    30    1
    33     6    31    1
    34    14    32    1
    35     1    33    1
    36     4    34    1
    37    25    35    1
    38    25    36    1
    39    11    37    1
    40    12    38    1
    41    24    39    1
    42    24    40    1
@<TRIPOS>SUBSTRUCTURE
     1 RES1        1 GROUP             0 ****  ****    0  
@<TRIPOS>MOLECULE
3PXZ:A:JWS301
    28    29     1     0     0
SMALL
NO_CHARGES
****
Generated from the CSD

@<TRIPOS>ATOM
     1 N1      29.9931   8.7333  64.1492   N.2       1 RES1   0.0000
     2 C2      29.0161   8.7573  63.1752   C.2       1 RES1   0.0000
     3 N3      28.9411   9.7723  62.2992   N.pl3     1 RES1   0.0000
     4 N4      28.1111   7.7292  63.0922   N.2       1 RES1   0.0000
     5 C5      28.1811   6.6762  63.9822   C.2       1 RES1   0.0000
     6 C6      27.2191   5.5472  63.8772   C.2       1 RES1   0.0000
     7 C7      27.2801   4.4151  64.7853   C.2       1 RES1   0.0000
     8 O8      28.2321   4.3781  65.7723   O.3       1 RES1   0.0000
     9 C9      26.3361   3.3361  64.6233   C.2       1 RES1   0.0000
    10 C10     25.3661   3.3791  63.5902   C.2       1 RES1   0.0000
    11 C11     25.2761   4.4861  62.6682   C.2       1 RES1   0.0000
    12 O12     24.3581   4.4381  61.7362   O.3       1 RES1   0.0000
    13 C13     26.2321   5.5722  62.8472   C.2       1 RES1   0.0000
    14 N14     29.1571   6.6732  64.9483   N.2       1 RES1   0.0000
    15 C15     30.0581   7.6802  65.0403   C.2       1 RES1   0.0000
    16 N16     30.9961   7.6312  65.9953   N.pl3     1 RES1   0.0000
    17 C17     23.4501   3.3321  61.5971   C.3       1 RES1   0.0000
    18 H1      28.2169   9.7764  61.5880   H         1 RES1   0.0000
    19 H2      29.6086  10.5354  62.3482   H         1 RES1   0.0000
    20 H3      28.1175   5.1610  66.3723   H         1 RES1   0.0000
    21 H4      26.3689   2.4828  65.2992   H         1 RES1   0.0000
    22 H5      22.8657   3.2252  62.5098   H         1 RES1   0.0000
    23 H6      22.7814   3.5148  60.7572   H         1 RES1   0.0000
    24 H7      24.0154   2.4185  61.4189   H         1 RES1   0.0000
    25 H8      24.6666   2.5506  63.4890   H         1 RES1   0.0000
    26 H9      31.0244   6.8470  66.6391   H         1 RES1   0.0000
    27 H10     31.6786   8.3782  66.0751   H         1 RES1   0.0000
    28 H11     26.1916   6.4279  62.1748   H         1 RES1   0.0000
@<TRIPOS>BOND
     1     1     2    2
     2     1    15    1
     3     2     3    1
     4     2     4    1
     5     4     5    2
     6     5     6    1
     7     5    14    1
     8     6     7    2
     9     6    13    1
    10     7     8    1
    11     7     9    1
    12     9    10    2
    13    10    11    1
    14    11    12    1
    15    11    13    2
    16    12    17    1
    17    14    15    2
    18    15    16    1
    19     3    18    1
    20     3    19    1
    21     8    20    1
    22     9    21    1
    23    17    22    1
    24    17    23    1
    25    17    24    1
    26    10    25    1
    27    16    26    1
    28    16    27    1
    29    13    28    1
@<TRIPOS>SUBSTRUCTURE
     1 RES1        1 GROUP             0 ****  ****    0  
@<TRIPOS>MOLECULE
2R3J:A:SCJ501
    38    41     1     0     0
SMALL
NO_CHARGES
****
Generated from the CSD

@<TRIPOS>ATOM
     1 C1      26.4196   4.2169  64.0387   C.2       1 RES1   0.0000
     2 C2      26.9776   5.4298  63.7107   C.2       1 RES1   0.0000
     3 N3      28.1406   5.5118  64.4167   N.pl3     1 RES1   0.0000
     4 N4      28.3446   4.3749  65.1838   N.2       1 RES1   0.0000
     5 C5      27.3036   3.5919  64.9248   C.2       1 RES1   0.0000
     6 N6      26.4936   6.3968  62.8597   N.2       1 RES1   0.0000
     7 C7      27.2266   7.4838  62.7407   C.2       1 RES1   0.0000
     8 C8      28.4546   7.6238  63.4577   C.2       1 RES1   0.0000
     9 C9      28.9376   6.6218  64.2967   C.2       1 RES1   0.0000
    10 N10     30.1067   6.6488  65.0328   N.pl3     1 RES1   0.0000
    11 C11     26.7426   8.5348  61.8337   C.2       1 RES1   0.0000
    12 C12     31.1717   7.6068  64.6757   C.3       1 RES1   0.0000
    13 C13     31.3237   8.6068  65.7948   C.2       1 RES1   0.0000
    14 C14     31.3007   9.9927  65.5698   C.2       1 RES1   0.0000
    15 N15     31.4277  10.9177  66.5288   N.2       1 RES1   0.0000
    16 C16     31.5927  10.4767  67.7798   C.2       1 RES1   0.0000
    17 C17     31.6487   9.1267  68.1158   C.2       1 RES1   0.0000
    18 C18     31.4997   8.1798  67.1078   C.2       1 RES1   0.0000
    19 C19     26.1946   8.1948  60.5916   C.2       1 RES1   0.0000
    20 C20     25.7326   9.1847  59.7066   C.2       1 RES1   0.0000
    21 C21     25.8326  10.5277  60.0506   C.2       1 RES1   0.0000
    22 C22     26.4026  10.8867  61.2767   C.2       1 RES1   0.0000
    23 C23     26.8496   9.8987  62.1597   C.2       1 RES1   0.0000
    24 Br24    24.8385   3.5209  63.3767   Br        1 RES1   0.0000
    25 H1      25.2960   8.8990  58.7507   H         1 RES1   0.0000
    26 H2      25.4694  11.2960  59.3696   H         1 RES1   0.0000
    27 H3      31.8062   8.8180  69.1482   H         1 RES1   0.0000
    28 H4      26.1249   7.1463  60.3059   H         1 RES1   0.0000
    29 H5      31.6883  11.2116  68.5777   H         1 RES1   0.0000
    30 H6      31.5205   7.1168  67.3432   H         1 RES1   0.0000
    31 H7      26.4984  11.9380  61.5441   H         1 RES1   0.0000
    32 H8      27.2869  10.1897  63.1136   H         1 RES1   0.0000
    33 H9      27.1579   2.5980  65.3452   H         1 RES1   0.0000
    34 H10     29.0303   8.5413  63.3450   H         1 RES1   0.0000
    35 H11     30.2325   6.0137  65.8145   H         1 RES1   0.0000
    36 H12     30.9041   8.1250  63.7560   H         1 RES1   0.0000
    37 H13     32.1102   7.0734  64.5319   H         1 RES1   0.0000
    38 H14     31.1707  10.3384  64.5453   H         1 RES1   0.0000
@<TRIPOS>BOND
     1     1     2    2
     2     1     5    1
     3     1    24    1
     4     2     3    1
     5     2     6    1
     6     3     4    1
     7     3     9    1
     8     4     5    2
     9     6     7    2
    10     7     8    1
    11     7    11    1
    12     8     9    2
    13     9    10    1
    14    10    12    1
    15    11    19    2
    16    11    23    1
    17    12    13    1
    18    13    14    2
    19    13    18    1
    20    14    15    1
    21    15    16    2
    22    16    17    1
    23    17    18    2
    24    19    20    1
    25    20    21    2
    26    21    22    1
    27    22    23    2
    28    20    25    1
    29    21    26    1
    30    17    27    1
    31    19    28    1
    32    16    29    1
    33    18    30    1
    34    22    31    1
    35    23    32    1
    36     5    33    1
    37     8    34    1
    38    10    35    1
    39    12    36    1
    40    12    37    1
    41    14    38    1
@<TRIPOS>SUBSTRUCTURE
     1 RES1        1 GROUP             0 ****  ****    0  
@<TRIPOS>MOLECULE
2CLX:A:F181299
    26    27     1     0     0
SMALL
NO_CHARGES
****
Generated from the CSD

@<TRIPOS>ATOM
     1 C1      23.7778   4.5549  61.6369   C.2       1 RES1   0.0000
     2 C2      24.5558   3.9469  62.6189   C.2       1 RES1   0.0000
     3 C3      25.6018   4.6029  63.2498   C.2       1 RES1   0.0000
     4 O4      22.7599   3.9009  61.0139   O.3       1 RES1   0.0000
     5 C5      25.8498   5.9059  62.8329   C.2       1 RES1   0.0000
     6 C6      25.0858   6.5129  61.8439   C.2       1 RES1   0.0000
     7 C7      24.0388   5.8529  61.2359   C.2       1 RES1   0.0000
     8 N8      26.7588   6.7429  63.2918   N.2       1 RES1   0.0000
     9 N9      27.6878   6.6589  64.0888   N.2       1 RES1   0.0000
    10 C10     28.2578   5.7079  64.8268   C.2       1 RES1   0.0000
    11 C11     28.0968   4.3669  65.1798   C.2       1 RES1   0.0000
    12 N12     27.2228   3.4379  64.8198   N.pl3     1 RES1   0.0000
    13 N13     29.1078   4.0999  65.9838   N.2       1 RES1   0.0000
    14 N14     29.8538   5.0639  66.1968   N.pl3     1 RES1   0.0000
    15 C15     29.4008   6.0969  65.5018   C.2       1 RES1   0.0000
    16 N16     29.9678   7.2979  65.4788   N.pl3     1 RES1   0.0000
    17 H1      26.1953   4.1247  64.0276   H         1 RES1   0.0000
    18 H2      25.3191   7.5329  61.5421   H         1 RES1   0.0000
    19 H3      23.4383   6.3366  60.4669   H         1 RES1   0.0000
    20 H4      27.2884   2.5020  65.2072   H         1 RES1   0.0000
    21 H5      26.4879   3.6623  64.1567   H         1 RES1   0.0000
    22 H6      30.6707   5.0633  66.7992   H         1 RES1   0.0000
    23 H7      30.8108   7.4715  66.0168   H         1 RES1   0.0000
    24 H8      29.5581   8.0420  64.9232   H         1 RES1   0.0000
    25 H9      24.3346   2.9188  62.9016   H         1 RES1   0.0000
    26 H10     22.0861   3.6197  61.6869   H         1 RES1   0.0000
@<TRIPOS>BOND
     1     1     2    2
     2     1     4    1
     3     1     7    1
     4     2     3    1
     5     3     5    2
     6     5     6    1
     7     5     8    1
     8     6     7    2
     9     8     9    2
    10     9    10    1
    11    10    11    1
    12    10    15    2
    13    11    12    1
    14    11    13    2
    15    13    14    1
    16    14    15    1
    17    15    16    1
    18     3    17    1
    19     6    18    1
    20     7    19    1
    21    12    20    1
    22    12    21    1
    23    14    22    1
    24    16    23    1
    25    16    24    1
    26     2    25    1
    27     4    26    1
@<TRIPOS>SUBSTRUCTURE
     1 RES1        1 GROUP             0 ****  ****    0  
@<TRIPOS>MOLECULE
3QXP:A:X64300
    41    43     1     0     0
SMALL
USER_CHARGES
****
Generated from the CSD

@<TRIPOS>ATOM
     1 N1      28.3833   4.3509  65.4005   N.pl3     1 RES1   0.0000
     2 N2      29.6273   6.1728  65.9415   N.2       1 RES1   0.0000
     3 N3      26.9013   2.7669  64.5585   N.pl3     1 RES1   0.0000
     4 N4      32.4143  11.9537  63.9155   N.pl3     1 RES1   0.0000
     5 N5      23.1432   6.0978  62.8235   N.pl3     1 RES1   1.0000
     6 C6      26.7963   4.9799  63.7845   C.2       1 RES1   0.0000
     7 C7      27.3323   3.9759  64.5805   C.2       1 RES1   0.0000
     8 C8      28.6573   5.6298  65.2515   C.2       1 RES1   0.0000
     9 C9      30.3923   7.2018  65.6455   C.2       1 RES1   0.0000
    10 C10     25.7593   4.8339  62.8645   C.2       1 RES1   0.0000
    11 C11     25.4093   5.9018  62.0205   C.2       1 RES1   0.0000
    12 C12     24.0802   6.5078  62.0345   C.2       1 RES1   0.0000
    13 C13     23.7972   7.5968  61.1435   C.2       1 RES1   0.0000
    14 C14     24.7882   8.0868  60.2565   C.2       1 RES1   0.0000
    15 C15     26.0883   7.4948  60.2385   C.2       1 RES1   0.0000
    16 C16     26.3953   6.4168  61.1065   C.2       1 RES1   0.0000
    17 C17     30.2593   7.9758  64.4395   C.2       1 RES1   0.0000
    18 C18     31.1273   9.0647  64.1825   C.2       1 RES1   0.0000
    19 C19     32.1343   9.3987  65.1135   C.2       1 RES1   0.0000
    20 C20     32.2773   8.6468  66.3175   C.2       1 RES1   0.0000
    21 C21     31.4103   7.5588  66.5775   C.2       1 RES1   0.0000
    22 O22     25.1992   3.7379  62.7245   O.2       1 RES1   0.0000
    23 O23     34.2783  10.2257  63.9095   O.2       1 RES1   0.0000
    24 O24     33.7933  11.2807  66.0025   O.2       1 RES1   0.0000
    25 O25     21.9162   6.0128  62.3745   O.3       1 RES1  -1.0000
    26 O26     23.3872   5.7918  64.0745   O.2       1 RES1   0.0000
    27 S27     27.6473   6.4548  64.1195   S.3       1 RES1   0.0000
    28 S28     33.2403  10.7517  64.7605   S.o2      1 RES1   0.0000
    29 H1      26.1295   2.5142  63.9496   H         1 RES1   0.0000
    30 H2      27.3323   2.0636  65.1500   H         1 RES1   0.0000
    31 H3      32.8986  12.8000  63.6337   H         1 RES1   0.0000
    32 H4      31.4326  11.8312  63.6885   H         1 RES1   0.0000
    33 H5      28.8752   3.7252  66.0304   H         1 RES1   0.0000
    34 H6      31.5219   6.9887  67.4986   H         1 RES1   0.0000
    35 H7      33.0526   8.9097  67.0356   H         1 RES1   0.0000
    36 H8      31.0180   9.6442  63.2670   H         1 RES1   0.0000
    37 H9      29.4841   7.7218  63.7181   H         1 RES1   0.0000
    38 H10     27.3893   5.9727  61.0816   H         1 RES1   0.0000
    39 H11     26.8469   7.8733  59.5550   H         1 RES1   0.0000
    40 H12     24.5584   8.9153  59.5881   H         1 RES1   0.0000
    41 H13     22.8082   8.0526  61.1490   H         1 RES1   0.0000
@<TRIPOS>BOND
     1     1     7    1
     2     1     8    1
     3     2     8    2
     4     2     9    1
     5     3     7    1
     6     4    28    1
     7     5    12    1
     8     5    25    1
     9     5    26    2
    10     6     7    2
    11     6    10    1
    12     6    27    1
    13     8    27    1
    14     9    17    2
    15     9    21    1
    16    10    11    1
    17    10    22    2
    18    11    12    2
    19    11    16    1
    20    12    13    1
    21    13    14    2
    22    14    15    1
    23    15    16    2
    24    17    18    1
    25    18    19    2
    26    19    20    1
    27    19    28    1
    28    20    21    2
    29    23    28    2
    30    24    28    2
    31     3    29    1
    32     3    30    1
    33     4    31    1
    34     4    32    1
    35     1    33    1
    36    21    34    1
    37    20    35    1
    38    18    36    1
    39    17    37    1
    40    16    38    1
    41    15    39    1
    42    14    40    1
    43    13    41    1
@<TRIPOS>SUBSTRUCTURE
     1 RES1        1 GROUP             0 ****  ****    0  
@<TRIPOS>MOLECULE
1H1Q:A:2A61298
    45    48     1     0     0
SMALL
NO_CHARGES
****
Generated from the CSD

@<TRIPOS>ATOM
     1 C1      28.4263   5.7598  65.2173   C.2       1 RES1   0.0000
     2 C2      25.5374   2.7169  63.8103   C.2       1 RES1   0.0000
     3 C3      26.7033   8.1977  62.8104   C.3       1 RES1   0.0000
     4 C4      26.1583   9.0567  61.6424   C.3       1 RES1   0.0000
     5 C5      26.0683  10.5076  62.1594   C.3       1 RES1   0.0000
     6 C6      25.8993  11.5546  61.0444   C.3       1 RES1   0.0000
     7 C7      26.8633  11.4236  59.8565   C.3       1 RES1   0.0000
     8 C8      26.9183   9.9737  59.3225   C.3       1 RES1   0.0000
     9 C9      27.1143   8.9037  60.4175   C.3       1 RES1   0.0000
    10 C10     31.6212   8.9717  66.2952   C.2       1 RES1   0.0000
    11 C11     31.7472   9.3607  64.9593   C.2       1 RES1   0.0000
    12 C12     31.1122   8.6337  63.9553   C.2       1 RES1   0.0000
    13 C13     30.3622   7.4967  64.2493   C.2       1 RES1   0.0000
    14 N14     27.5893   6.6338  64.3993   N.2       1 RES1   0.0000
    15 C15     26.5643   6.2048  63.7373   C.2       1 RES1   0.0000
    16 O16     25.8334   7.0518  62.9934   O.3       1 RES1   0.0000
    17 C17     26.2313   4.7968  63.8413   C.2       1 RES1   0.0000
    18 N18     25.2614   3.8629  63.3463   N.2       1 RES1   0.0000
    19 N19     26.5943   2.7549  64.5853   N.pl3     1 RES1   0.0000
    20 C20     26.9923   3.9939  64.5973   C.2       1 RES1   0.0000
    21 N21     28.1223   4.5268  65.2793   N.2       1 RES1   0.0000
    22 N22     29.4883   6.0418  65.9072   N.pl3     1 RES1   0.0000
    23 C23     30.2342   7.1218  65.5813   C.2       1 RES1   0.0000
    24 C24     30.8532   7.8537  66.5882   C.2       1 RES1   0.0000
    25 H1      26.7233   8.7915  63.7231   H         1 RES1   0.0000
    26 H2      27.7112   7.8584  62.5759   H         1 RES1   0.0000
    27 H3      27.7472   9.8996  58.6201   H         1 RES1   0.0000
    28 H4      25.9836   9.7649  58.8042   H         1 RES1   0.0000
    29 H5      27.8610  11.7198  60.1772   H         1 RES1   0.0000
    30 H6      26.5289  12.0821  59.0562   H         1 RES1   0.0000
    31 H7      25.1633   8.7075  61.3703   H         1 RES1   0.0000
    32 H8      26.9816  10.7341  62.7076   H         1 RES1   0.0000
    33 H9      25.2143  10.5804  62.8311   H         1 RES1   0.0000
    34 H10     30.7332   7.5441  67.6254   H         1 RES1   0.0000
    35 H11     29.7585   5.4537  66.6891   H         1 RES1   0.0000
    36 H12     27.0173   1.9744  65.0773   H         1 RES1   0.0000
    37 H13     24.9686   1.8141  63.5929   H         1 RES1   0.0000
    38 H14     29.8895   6.9179  63.4572   H         1 RES1   0.0000
    39 H15     31.2036   8.9602  62.9204   H         1 RES1   0.0000
    40 H16     32.3436  10.2349  64.7023   H         1 RES1   0.0000
    41 H17     32.1141   9.5326  67.0879   H         1 RES1   0.0000
    42 H18     26.9443   7.9246  59.9722   H         1 RES1   0.0000
    43 H19     28.1407   8.9662  60.7759   H         1 RES1   0.0000
    44 H20     26.0440  12.5396  61.4857   H         1 RES1   0.0000
    45 H21     24.8831  11.4742  60.6611   H         1 RES1   0.0000
@<TRIPOS>BOND
     1     1    14    2
     2     1    21    1
     3     1    22    1
     4     2    18    2
     5     2    19    1
     6     3     4    1
     7     3    16    1
     8     4     5    1
     9     4     9    1
    10     5     6    1
    11     6     7    1
    12     7     8    1
    13     8     9    1
    14    10    11    2
    15    10    24    1
    16    11    12    1
    17    12    13    2
    18    13    23    1
    19    14    15    1
    20    15    16    1
    21    15    17    2
    22    17    18    1
    23    17    20    1
    24    19    20    1
    25    20    21    2
    26    22    23    1
    27    23    24    2
    28     3    25    1
    29     3    26    1
    30     8    27    1
    31     8    28    1
    32     7    29    1
    33     7    30    1
    34     4    31    1
    35     5    32    1
    36     5    33    1
    37    24    34    1
    38    22    35    1
    39    19    36    1
    40     2    37    1
    41    13    38    1
    42    12    39    1
    43    11    40    1
    44    10    41    1
    45     9    42    1
    46     9    43    1
    47     6    44    1
    48     6    45    1
@<TRIPOS>SUBSTRUCTURE
     1 RES1        1 GROUP             0 ****  ****    0  
@<TRIPOS>MOLECULE
3QWK:A:X62493
    31    32     1     0     0
SMALL
USER_CHARGES
****
Generated from the CSD

@<TRIPOS>ATOM
     1 N1      29.3958   6.2922  64.9575   N.pl3     1 RES1   0.0000
     2 N2      26.7708   3.1861  64.5455   N.am      1 RES1   0.0000
     3 N3      31.0528   8.6603  67.9974   N.2       1 RES1   0.0000
     4 N4      31.7738  10.2403  66.3294   N.2       1 RES1   0.0000
     5 N5      24.2969   7.3602  63.2545   N.pl3     1 RES1   1.0000
     6 C6      25.8598   5.8312  64.1145   C.2       1 RES1   0.0000
     7 C7      27.1878   5.5252  64.5725   C.2       1 RES1   0.0000
     8 C8      28.1898   6.5502  64.5595   C.2       1 RES1   0.0000
     9 C9      27.8378   7.8632  64.1125   C.2       1 RES1   0.0000
    10 C10     26.5328   8.1672  63.6755   C.2       1 RES1   0.0000
    11 C11     25.5118   7.1402  63.6585   C.2       1 RES1   0.0000
    12 C12     27.4678   4.2551  65.0225   C.2       1 RES1   0.0000
    13 C13     30.5818   7.0862  64.5445   C.3       1 RES1   0.0000
    14 C14     30.9288   8.0692  65.6305   C.2       1 RES1   0.0000
    15 C15     30.7478   7.7882  66.9944   C.2       1 RES1   0.0000
    16 C16     31.5568   9.8533  67.6134   C.2       1 RES1   0.0000
    17 C17     31.4508   9.3293  65.3605   C.2       1 RES1   0.0000
    18 O18     28.3098   4.0791  65.8945   O.2       1 RES1   0.0000
    19 O19     23.3099   6.6302  63.6965   O.3       1 RES1  -1.0000
    20 O20     24.0179   8.2882  62.3595   O.2       1 RES1   0.0000
    21 Cl21    26.2328   9.7813  63.1875   Cl        1 RES1   0.0000
    22 Cl22    31.9568  10.9673  68.8594   Cl        1 RES1   0.0000
    23 H1      31.6116   9.6069  64.3198   H         1 RES1   0.0000
    24 H2      30.3396   6.8162  67.2673   H         1 RES1   0.0000
    25 H3      30.3561   7.6250  63.6254   H         1 RES1   0.0000
    26 H4      31.4253   6.4183  64.3760   H         1 RES1   0.0000
    27 H5      29.5376   5.5065  65.5842   H         1 RES1   0.0000
    28 H6      26.9820   2.2518  64.8813   H         1 RES1   0.0000
    29 H7      26.0404   3.3240  63.8543   H         1 RES1   0.0000
    30 H8      28.5955   8.6454  64.1099   H         1 RES1   0.0000
    31 H9      25.1026   5.0485  64.1151   H         1 RES1   0.0000
@<TRIPOS>BOND
     1     1     8    1
     2     1    13    1
     3     2    12   am
     4     3    15    2
     5     3    16    1
     6     4    16    2
     7     4    17    1
     8     5    11    1
     9     5    19    1
    10     5    20    2
    11     6     7    2
    12     6    11    1
    13     7     8    1
    14     7    12    1
    15     8     9    2
    16     9    10    1
    17    10    11    2
    18    10    21    1
    19    12    18    2
    20    13    14    1
    21    14    15    1
    22    14    17    2
    23    16    22    1
    24    17    23    1
    25    15    24    1
    26    13    25    1
    27    13    26    1
    28     1    27    1
    29     2    28    1
    30     2    29    1
    31     9    30    1
    32     6    31    1
@<TRIPOS>SUBSTRUCTURE
     1 RES1        1 GROUP             0 ****  ****    0  
@<TRIPOS>MOLECULE
3PY1:A:SU9300
    29    31     1     0     0
SMALL
NO_CHARGES
****
Generated from the CSD

@<TRIPOS>ATOM
     1 N1      30.2298   6.3070  65.7373   N.2       1 RES1   0.0000
     2 C2      31.2078   7.1420  66.0313   C.2       1 RES1   0.0000
     3 N3      31.1028   8.2910  65.3243   N.pl3     1 RES1   0.0000
     4 C4      29.9798   8.1640  64.5283   C.2       1 RES1   0.0000
     5 C5      29.4558   6.9200  64.8043   C.2       1 RES1   0.0000
     6 C6      28.2478   6.4340  64.1363   C.2       1 RES1   0.0000
     7 C7      27.5868   5.2410  64.2783   C.2       1 RES1   0.0000
     8 C8      27.8848   4.1340  65.1293   C.2       1 RES1   0.0000
     9 O9      28.8048   3.9970  65.9413   O.2       1 RES1   0.0000
    10 N10     26.9538   3.1320  64.9383   N.am      1 RES1   0.0000
    11 C11     26.0348   3.5460  63.9723   C.2       1 RES1   0.0000
    12 C12     24.8988   2.8680  63.4263   C.2       1 RES1   0.0000
    13 C13     24.1278   3.5580  62.4333   C.2       1 RES1   0.0000
    14 C14     24.4508   4.8880  61.9723   C.2       1 RES1   0.0000
    15 O15     23.6268   5.4540  61.0183   O.3       1 RES1   0.0000
    16 C16     23.9028   6.7580  60.5363   C.3       1 RES1   0.0000
    17 C17     25.6068   5.5140  62.5523   C.2       1 RES1   0.0000
    18 C18     26.3828   4.8440  63.5393   C.2       1 RES1   0.0000
    19 H1      27.8073   7.1239  63.4180   H         1 RES1   0.0000
    20 H2      29.5886   8.8983  63.8256   H         1 RES1   0.0000
    21 H3      31.7269   9.0902  65.3696   H         1 RES1   0.0000
    22 H4      31.9983   6.9334  66.7507   H         1 RES1   0.0000
    23 H5      26.9399   2.2396  65.4217   H         1 RES1   0.0000
    24 H6      24.8906   6.7741  60.0780   H         1 RES1   0.0000
    25 H7      23.1546   7.0373  59.7960   H         1 RES1   0.0000
    26 H8      23.8753   7.4645  61.3645   H         1 RES1   0.0000
    27 H9      24.6297   1.8646  63.7530   H         1 RES1   0.0000
    28 H10     25.8930   6.5148  62.2322   H         1 RES1   0.0000
    29 H11     23.2598   3.0566  62.0078   H         1 RES1   0.0000
@<TRIPOS>BOND
     1     1     2    2
     2     1     5    1
     3     2     3    1
     4     3     4    1
     5     4     5    2
     6     5     6    1
     7     6     7    2
     8     7     8    1
     9     7    18    1
    10     8     9    2
    11     8    10   am
    12    10    11    1
    13    11    12    1
    14    11    18    2
    15    12    13    2
    16    13    14    1
    17    14    15    1
    18    14    17    2
    19    15    16    1
    20    17    18    1
    21     6    19    1
    22     4    20    1
    23     3    21    1
    24     2    22    1
    25    10    23    1
    26    16    24    1
    27    16    25    1
    28    16    26    1
    29    12    27    1
    30    17    28    1
    31    13    29    1
@<TRIPOS>SUBSTRUCTURE
     1 RES1        1 GROUP             0 ****  ****    0  
@<TRIPOS>MOLECULE
3QTS:A:X46299
    38    40     1     0     0
SMALL
NO_CHARGES
****
Generated from the CSD

@<TRIPOS>ATOM
     1 C1      25.6904   9.4379  60.7711   C.2       1 RES1   0.0000
     2 N2      28.8405   4.4199  65.4771   N.2       1 RES1   0.0000
     3 S3      28.4405   6.7219  64.3821   S.3       1 RES1   0.0000
     4 C4      25.7784   9.4209  62.2601   C.2       1 RES1   0.0000
     5 N5      27.2015   3.0720  64.3881   N.pl3     1 RES1   0.0000
     6 C6      26.0174   8.1589  62.9441   C.2       1 RES1   0.0000
     7 N7      30.3345   6.0969  66.3031   N.pl3     1 RES1   0.0000
     8 O8      25.7004   4.4989  62.5081   O.2       1 RES1   0.0000
     9 C9      26.0824   6.9429  60.6981   C.2       1 RES1   0.0000
    10 C10     25.8434   8.1849  59.9961   C.2       1 RES1   0.0000
    11 O11     25.6384  10.5919  63.0571   O.3       1 RES1   0.0000
    12 C12     25.4174  11.8328  62.6021   C.3       1 RES1   0.0000
    13 C13     26.1744   6.8939  62.1721   C.2       1 RES1   0.0000
    14 C14     26.4204   5.5759  62.8481   C.2       1 RES1   0.0000
    15 C15     27.4835   5.4229  63.9041   C.2       1 RES1   0.0000
    16 C16     27.8175   4.2619  64.5881   C.2       1 RES1   0.0000
    17 C17     29.2855   5.6979  65.4761   C.2       1 RES1   0.0000
    18 C18     31.1145   7.2669  66.2361   C.2       1 RES1   0.0000
    19 C19     30.9535   8.3679  65.1911   C.2       1 RES1   0.0000
    20 C20     31.7845   9.5409  65.1931   C.2       1 RES1   0.0000
    21 C21     32.8096   9.6869  66.2271   C.2       1 RES1   0.0000
    22 C22     32.9866   8.6309  67.2521   C.2       1 RES1   0.0000
    23 C23     32.1605   7.4489  67.2561   C.2       1 RES1   0.0000
    24 H1      33.7540   8.7498  68.0156   H         1 RES1   0.0000
    25 H2      24.4814  11.8541  62.0458   H         1 RES1   0.0000
    26 H3      25.3558  12.5221  63.4429   H         1 RES1   0.0000
    27 H4      26.2354  12.1306  61.9478   H         1 RES1   0.0000
    28 H5      25.7767   8.1986  58.9092   H         1 RES1   0.0000
    29 H6      32.3113   6.6860  68.0185   H         1 RES1   0.0000
    30 H7      26.1972   6.0227  60.1271   H         1 RES1   0.0000
    31 H8      30.5675   5.4569  67.0557   H         1 RES1   0.0000
    32 H9      26.0822   8.1387  64.0310   H         1 RES1   0.0000
    33 H10     31.6528  10.3112  64.4346   H         1 RES1   0.0000
    34 H11     25.5125  10.3777  60.2504   H         1 RES1   0.0000
    35 H12     26.4441   2.9992  63.7164   H         1 RES1   0.0000
    36 H13     27.4974   2.2533  64.9100   H         1 RES1   0.0000
    37 H14     30.1885   8.2619  64.4234   H         1 RES1   0.0000
    38 H15     33.4432  10.5725  66.2436   H         1 RES1   0.0000
@<TRIPOS>BOND
     1     1     4    2
     2     1    10    1
     3     2    16    1
     4     2    17    2
     5     3    15    1
     6     3    17    1
     7     4     6    1
     8     4    11    1
     9     5    16    1
    10     6    13    2
    11     7    17    1
    12     7    18    1
    13     8    14    2
    14     9    10    2
    15     9    13    1
    16    11    12    1
    17    13    14    1
    18    14    15    1
    19    15    16    2
    20    18    19    2
    21    18    23    1
    22    19    20    1
    23    20    21    2
    24    21    22    1
    25    22    23    2
    26    22    24    1
    27    12    25    1
    28    12    26    1
    29    12    27    1
    30    10    28    1
    31    23    29    1
    32     9    30    1
    33     7    31    1
    34     6    32    1
    35    20    33    1
    36     1    34    1
    37     5    35    1
    38     5    36    1
    39    19    37    1
    40    21    38    1
@<TRIPOS>SUBSTRUCTURE
     1 RES1        1 GROUP             0 ****  ****    0  
@<TRIPOS>MOLECULE
1OIT:A:HDT1299
    40    43     1     0     0
SMALL
NO_CHARGES
****
Generated from the CSD

@<TRIPOS>ATOM
     1 C1      31.5452   7.5440  66.3359   C.2       1 RES1   0.0000
     2 N2      25.9243   7.7730  62.6229   N.pl3     1 RES1   0.0000
     3 C3      26.5703   8.6780  63.3699   C.2       1 RES1   0.0000
     4 C4      25.1044   8.0630  61.6339   C.2       1 RES1   0.0000
     5 C5      24.8304   9.3720  61.2779   C.2       1 RES1   0.0000
     6 C6      25.4814  10.3470  62.0349   C.2       1 RES1   0.0000
     7 C7      26.3553  10.0210  63.0799   C.2       1 RES1   0.0000
     8 C8      26.3653   4.3950  64.0879   C.2       1 RES1   0.0000
     9 C9      26.7773   5.6550  63.6869   C.2       1 RES1   0.0000
    10 C10     25.9643   6.4250  62.6939   C.2       1 RES1   0.0000
    11 C11     25.1524   5.9160  61.7439   C.2       1 RES1   0.0000
    12 C12     27.1513   3.7170  65.0099   C.2       1 RES1   0.0000
    13 C13     30.5092   7.2070  65.4579   C.2       1 RES1   0.0000
    14 C14     28.6643   5.5200  65.1009   C.2       1 RES1   0.0000
    15 N15     27.9103   6.1990  64.2079   N.2       1 RES1   0.0000
    16 C16     30.3262   7.9860  64.3169   C.2       1 RES1   0.0000
    17 C17     31.1192   9.1140  64.0929   C.2       1 RES1   0.0000
    18 C18     32.1202   9.4650  64.9909   C.2       1 RES1   0.0000
    19 O19     34.1481  10.3140  63.9179   O.2       1 RES1   0.0000
    20 S20     33.0442  10.7490  64.7169   S.o2      1 RES1   0.0000
    21 O21     33.5361  11.2941  65.9559   O.2       1 RES1   0.0000
    22 N22     32.2332  11.8731  63.9159   N.pl3     1 RES1   0.0000
    23 C23     32.3362   8.6700  66.1169   C.2       1 RES1   0.0000
    24 N24     29.7872   6.0220  65.6899   N.pl3     1 RES1   0.0000
    25 N25     28.2613   4.2920  65.4929   N.2       1 RES1   0.0000
    26 N26     24.6164   6.8690  61.0880   N.2       1 RES1   0.0000
    27 H1      30.9515   9.7240  63.2065   H         1 RES1   0.0000
    28 H2      29.5588   7.7131  63.5941   H         1 RES1   0.0000
    29 H3      33.1226   8.9293  66.8242   H         1 RES1   0.0000
    30 H4      30.1698   5.4372  66.4260   H         1 RES1   0.0000
    31 H5      24.9814   4.8555  61.5651   H         1 RES1   0.0000
    32 H6      31.7365   6.9159  67.2047   H         1 RES1   0.0000
    33 H7      32.6867  12.7469  63.6687   H         1 RES1   0.0000
    34 H8      31.2656  11.7120  63.6553   H         1 RES1   0.0000
    35 H9      24.1533   9.6239  60.4630   H         1 RES1   0.0000
    36 H10     27.2386   8.3735  64.1740   H         1 RES1   0.0000
    37 H11     26.8662   2.7192  65.3402   H         1 RES1   0.0000
    38 H12     25.3040  11.3967  61.8055   H         1 RES1   0.0000
    39 H13     25.4534   3.9500  63.6924   H         1 RES1   0.0000
    40 H14     26.8549  10.8013  63.6521   H         1 RES1   0.0000
@<TRIPOS>BOND
     1     1    13    2
     2     1    23    1
     3     2     3    1
     4     2     4    1
     5     2    10    1
     6     3     7    2
     7     4     5    1
     8     4    26    2
     9     5     6    2
    10     6     7    1
    11     8     9    2
    12     8    12    1
    13     9    10    1
    14     9    15    1
    15    10    11    2
    16    11    26    1
    17    12    25    2
    18    13    16    1
    19    13    24    1
    20    14    15    2
    21    14    24    1
    22    14    25    1
    23    16    17    2
    24    17    18    1
    25    18    20    1
    26    18    23    2
    27    19    20    2
    28    20    21    2
    29    20    22    1
    30    17    27    1
    31    16    28    1
    32    23    29    1
    33    24    30    1
    34    11    31    1
    35     1    32    1
    36    22    33    1
    37    22    34    1
    38     5    35    1
    39     3    36    1
    40    12    37    1
    41     6    38    1
    42     8    39    1
    43     7    40    1
@<TRIPOS>SUBSTRUCTURE
     1 RES1        1 GROUP             0 ****  ****    0  
@<TRIPOS>MOLECULE
3QQF:A:X07543
    32    33     1     0     0
SMALL
USER_CHARGES
****
Generated from the CSD

@<TRIPOS>ATOM
     1 C1      28.3935   7.9681  63.5900   C.2       1 RES1   0.0000
     2 C2      27.1035   8.3101  63.1330   C.2       1 RES1   0.0000
     3 C3      25.9854   7.4351  63.3370   C.2       1 RES1   0.0000
     4 C4      26.2194   6.2050  64.0210   C.2       1 RES1   0.0000
     5 C5      27.5215   5.8110  64.5030   C.2       1 RES1   0.0000
     6 C6      28.6565   6.7151  64.2880   C.2       1 RES1   0.0000
     7 N7      29.8875   6.3710  64.6990   N.pl3     1 RES1   0.0000
     8 C8      27.6425   4.5580  65.0790   C.2       1 RES1   0.0000
     9 N9      26.8505   3.5070  64.7200   N.am      1 RES1   0.0000
    10 O10     28.5675   4.3310  66.0190   O.2       1 RES1   0.0000
    11 N11     24.7624   7.7511  62.9070   N.pl3     1 RES1   1.0000
    12 O12     23.7114   6.9251  63.1030   O.3       1 RES1  -1.0000
    13 O13     24.5484   8.8031  62.3199   O.2       1 RES1   0.0000
    14 C14     31.1335   7.1451  64.5370   C.3       1 RES1   0.0000
    15 C15     31.5505  10.3671  67.4220   C.2       1 RES1   0.0000
    16 N16     31.3625   9.0611  67.8340   N.2       1 RES1   0.0000
    17 C17     31.2245   8.0091  66.9420   C.2       1 RES1   0.0000
    18 C18     31.2785   8.2641  65.5400   C.2       1 RES1   0.0000
    19 C19     31.4735   9.6091  65.1010   C.2       1 RES1   0.0000
    20 C20     31.6105  10.6651  66.0370   C.2       1 RES1   0.0000
    21 H1      31.7595  11.6891  65.6976   H         1 RES1   0.0000
    22 H2      29.2166   8.6597  63.4165   H         1 RES1   0.0000
    23 H3      26.9537   9.2565  62.6155   H         1 RES1   0.0000
    24 H4      25.3782   5.5336  64.1867   H         1 RES1   0.0000
    25 H5      29.9705   5.4781  65.1746   H         1 RES1   0.0000
    26 H6      26.9719   2.6040  65.1673   H         1 RES1   0.0000
    27 H7      26.1398   3.6279  64.0055   H         1 RES1   0.0000
    28 H8      31.5175   9.8261  64.0347   H         1 RES1   0.0000
    29 H9      31.1455   7.5747  63.5364   H         1 RES1   0.0000
    30 H10     31.9783   6.4674  64.6512   H         1 RES1   0.0000
    31 H11     31.6521  11.1635  68.1578   H         1 RES1   0.0000
    32 H12     31.0759   6.9948  67.3094   H         1 RES1   0.0000
@<TRIPOS>BOND
     1     1     2    2
     2     1     6    1
     3     2     3    1
     4     3     4    2
     5     3    11    1
     6     4     5    1
     7     5     6    2
     8     5     8    1
     9     6     7    1
    10     7    14    1
    11     8     9   am
    12     8    10    2
    13    11    12    1
    14    11    13    2
    15    14    18    1
    16    15    16    2
    17    15    20    1
    18    16    17    1
    19    17    18    2
    20    18    19    1
    21    19    20    2
    22    20    21    1
    23     1    22    1
    24     2    23    1
    25     4    24    1
    26     7    25    1
    27     9    26    1
    28     9    27    1
    29    19    28    1
    30    14    29    1
    31    14    30    1
    32    15    31    1
    33    17    32    1
@<TRIPOS>SUBSTRUCTURE
     1 RES1        1 GROUP             0 ****  ****    0  
@<TRIPOS>MOLECULE
3QQG:A:X06300
    24    25     1     0     0
SMALL
NO_CHARGES
****
Generated from the CSD

@<TRIPOS>ATOM
     1 N1      28.4373   7.8582  63.6773   N.2       1 RES1   0.0000
     2 N2      30.4432   8.6093  64.7803   N.2       1 RES1   0.0000
     3 N3      29.5512   6.4312  65.2503   N.2       1 RES1   0.0000
     4 N4      29.3542   9.8803  63.3083   N.pl3     1 RES1   0.0000
     5 N5      31.4002   7.1992  66.2203   N.pl3     1 RES1   0.0000
     6 C6      25.5143   4.9311  63.0443   C.2       1 RES1   0.0000
     7 C7      25.6663   3.6511  63.6413   C.2       1 RES1   0.0000
     8 C8      26.7833   3.3921  64.4923   C.2       1 RES1   0.0000
     9 C9      27.7503   4.4001  64.7503   C.2       1 RES1   0.0000
    10 C10     27.6163   5.7072  64.1493   C.2       1 RES1   0.0000
    11 C11     26.4813   5.9552  63.2923   C.2       1 RES1   0.0000
    12 C12     28.5583   6.6972  64.3713   C.2       1 RES1   0.0000
    13 C13     29.4152   8.7683  63.9323   C.2       1 RES1   0.0000
    14 C14     30.4522   7.4162  65.4083   C.2       1 RES1   0.0000
    15 O15     28.8003   4.1161  65.5593   O.3       1 RES1   0.0000
    16 Cl16    24.1584   5.2262  62.0103   Cl        1 RES1   0.0000
    17 H1      29.3225   3.3652  65.1726   H         1 RES1   0.0000
    18 H2      26.3601   6.9334  62.8293   H         1 RES1   0.0000
    19 H3      30.0621  10.5904  63.4662   H         1 RES1   0.0000
    20 H4      28.5978  10.0544  62.6542   H         1 RES1   0.0000
    21 H5      31.4504   6.3157  66.7174   H         1 RES1   0.0000
    22 H6      32.1095   7.9088  66.3737   H         1 RES1   0.0000
    23 H7      26.8952   2.4099  64.9491   H         1 RES1   0.0000
    24 H8      24.9327   2.8692  63.4504   H         1 RES1   0.0000
@<TRIPOS>BOND
     1     1    12    2
     2     1    13    1
     3     2    13    2
     4     2    14    1
     5     3    12    1
     6     3    14    2
     7     4    13    1
     8     5    14    1
     9     6     7    2
    10     6    11    1
    11     6    16    1
    12     7     8    1
    13     8     9    2
    14     9    10    1
    15     9    15    1
    16    10    11    2
    17    10    12    1
    18    15    17    1
    19    11    18    1
    20     4    19    1
    21     4    20    1
    22     5    21    1
    23     5    22    1
    24     8    23    1
    25     7    24    1
@<TRIPOS>SUBSTRUCTURE
     1 RES1        1 GROUP             0 ****  ****    0  
@<TRIPOS>MOLECULE
4EK8:A:16K301
    48    51     1     0     0
SMALL
USER_CHARGES
****
Generated from the CSD

@<TRIPOS>ATOM
     1 S1      26.7506   7.4199  61.8514   S.3       1 RES1   0.0000
     2 C2      26.0376   5.9979  62.5344   C.2       1 RES1   0.0000
     3 N3      27.8556   6.0099  64.0374   N.2       1 RES1   0.0000
     4 O4      27.7706  10.4838  63.8034   O.3       1 RES1  -1.0000
     5 O5      32.8007   8.9078  68.5514   O.3       1 RES1  -1.0000
     6 C6      26.8666   5.2299  63.4544   C.2       1 RES1   0.0000
     7 N7      28.5706   4.0569  65.3574   N.2       1 RES1   0.0000
     8 O8      29.4837  11.6488  63.3484   O.2       1 RES1   0.0000
     9 O9      33.8688  10.1408  67.1754   O.2       1 RES1   0.0000
    10 C10     28.6856   5.3989  64.9694   C.2       1 RES1   0.0000
    11 N11     29.7737   6.0469  65.5784   N.3       1 RES1   0.0000
    12 C12     27.5706   3.3369  64.7624   C.2       1 RES1   0.0000
    13 N13     28.9666  10.6828  63.8664   N.pl3     1 RES1   1.0000
    14 N14     32.9537   9.3758  67.4344   N.pl3     1 RES1   1.0000
    15 C15     26.6776   3.8769  63.7944   C.2       1 RES1   0.0000
    16 N16     24.4045   6.7059  61.0144   N.2       1 RES1   0.0000
    17 C17     30.1737   7.3969  65.3764   C.2       1 RES1   0.0000
    18 C18     30.3957   7.3209  65.4984   C.2       1 RES1   0.0000
    19 C19     29.4087   8.3538  64.6424   C.2       1 RES1   0.0000
    20 C20     31.3027   7.7379  66.5024   C.2       1 RES1   0.0000
    21 C21     29.8267   9.6888  64.6094   C.2       1 RES1   0.0000
    22 C22     31.9907   8.9558  66.3454   C.2       1 RES1   0.0000
    23 C23     30.9997  10.1218  65.2634   C.2       1 RES1   0.0000
    24 C24     31.8027   9.7838  65.2114   C.2       1 RES1   0.0000
    25 C25     31.7727   9.1608  65.9694   C.2       1 RES1   0.0000
    26 C26     30.8817   9.3708  64.2204   C.2       1 RES1   0.0000
    27 C27     31.3757   7.8148  66.0324   C.2       1 RES1   0.0000
    28 C28     30.1807   8.1618  64.3554   C.2       1 RES1   0.0000
    29 C29     24.7936   5.7609  61.9674   C.2       1 RES1   0.0000
    30 C30     25.3656   7.6149  60.8744   C.2       1 RES1   0.0000
    31 C31     25.2706   8.7408  59.9024   C.3       1 RES1   0.0000
    32 C32     23.8235   4.6589  62.1594   C.3       1 RES1   0.0000
    33 H1      31.9800   7.0918  66.5783   H         1 RES1   0.0000
    34 H2      23.5158   4.6239  63.2034   H         1 RES1   0.0000
    35 H3      22.9516   4.8290  61.5295   H         1 RES1   0.0000
    36 H4      24.2896   3.7133  61.8864   H         1 RES1   0.0000
    37 H5      29.4693   7.8602  63.5880   H         1 RES1   0.0000
    38 H6      32.6881   9.4730  66.4699   H         1 RES1   0.0000
    39 H7      26.0835   8.6675  59.1815   H         1 RES1   0.0000
    40 H8      24.3164   8.6899  59.3800   H         1 RES1   0.0000
    41 H9      25.3425   9.6877  60.4355   H         1 RES1   0.0000
    42 H10     30.7148   9.9963  63.3447   H         1 RES1   0.0000
    43 H11     27.4513   2.2921  65.0453   H         1 RES1   0.0000
    44 H12     25.8906   3.2758  63.3413   H         1 RES1   0.0000
    45 H13     31.4662   7.1232  67.3863   H         1 RES1   0.0000
    46 H14     28.5078   8.0471  64.1130   H         1 RES1   0.0000
    47 H15     32.3544  10.7166  65.1051   H         1 RES1   0.0000
    48 H16     31.3050  11.1665  65.2280   H         1 RES1   0.0000
@<TRIPOS>BOND
     1     1     2    1
     2     1    30    1
     3     2     6    1
     4     2    29    2
     5     3     6    2
     6     3    10    1
     7     4    13    1
     8     5    14    1
     9     6    15    1
    10     7    10    2
    11     7    12    1
    12     8    13    2
    13     9    14    2
    14    10    11    1
    15    11    17    1
    16    11    18    1
    17    12    15    2
    18    13    21    1
    19    14    22    1
    20    16    29    1
    21    16    30    2
    22    17    19    2
    23    17    27    1
    24    18    20    2
    25    18    28    1
    26    19    21    1
    27    20    22    1
    28    21    23    2
    29    22    24    2
    30    23    25    1
    31    24    26    1
    32    25    27    2
    33    26    28    2
    34    29    32    1
    35    30    31    1
    36    27    33    1
    37    32    34    1
    38    32    35    1
    39    32    36    1
    40    28    37    1
    41    25    38    1
    42    31    39    1
    43    31    40    1
    44    31    41    1
    45    26    42    1
    46    12    43    1
    47    15    44    1
    48    20    45    1
    49    19    46    1
    50    24    47    1
    51    23    48    1
@<TRIPOS>SUBSTRUCTURE
     1 RES1        1 GROUP             0 ****  ****    0  
@<TRIPOS>MOLECULE
4EK6:A:10K301
    49    53     1     0     0
SMALL
NO_CHARGES
****
Generated from the CSD

@<TRIPOS>ATOM
     1 O1      29.1682   7.9578  63.8994   O.2       1 RES1   0.0000
     2 S2      30.8162  13.3297  68.8893   S.3       1 RES1   0.0000
     3 S3      31.5102  11.3117  70.7663   S.3       1 RES1   0.0000
     4 C4      31.3252  13.8127  70.4383   C.2       1 RES1   0.0000
     5 C5      31.3722  12.9347  71.2683   C.2       1 RES1   0.0000
     6 N6      29.7192   6.1339  65.1673   N.am      1 RES1   0.0000
     7 C7      32.0122  12.8397  71.0933   C.2       1 RES1   0.0000
     8 C8      31.2712  13.7937  70.2303   C.2       1 RES1   0.0000
     9 N9      28.5172   4.1099  65.4803   N.2       1 RES1   0.0000
    10 C10     32.1292  11.6327  70.3043   C.2       1 RES1   0.0000
    11 C11     31.3082  13.1117  68.9693   C.2       1 RES1   0.0000
    12 N12     27.3602   3.6079  65.0173   N.pl3     1 RES1   0.0000
    13 C13     31.5222  11.7507  69.0903   C.2       1 RES1   0.0000
    14 C14     31.4292  11.7447  69.1073   C.2       1 RES1   0.0000
    15 C15     31.4342  10.7468  68.0433   C.3       1 RES1   0.0000
    16 C16     31.1692  11.1347  66.7043   C.2       1 RES1   0.0000
    17 C17     31.1302  10.1958  65.6683   C.2       1 RES1   0.0000
    18 C18     31.3742   8.8338  65.9673   C.2       1 RES1   0.0000
    19 C19     31.6162   8.4288  67.2813   C.2       1 RES1   0.0000
    20 C20     31.6472   9.3618  68.3313   C.3       1 RES1   0.0000
    21 C21     31.4092   7.8638  64.8573   C.3       1 RES1   0.0000
    22 C22     29.9872   7.3508  64.5763   C.2       1 RES1   0.0000
    23 C23     28.5722   5.3899  65.0243   C.2       1 RES1   0.0000
    24 C24     26.6382   4.5269  64.2684   C.2       1 RES1   0.0000
    25 C25     27.3962   5.6979  64.2484   C.2       1 RES1   0.0000
    26 C26     25.3582   4.1389  63.6744   C.3       1 RES1   0.0000
    27 C27     24.9582   4.6149  62.2884   C.3       1 RES1   0.0000
    28 C28     24.2672   5.1829  63.4984   C.3       1 RES1   0.0000
    29 H1      31.1736  14.8729  70.3381   H         1 RES1   0.0000
    30 H2      31.1225  14.7960  70.8602   H         1 RES1   0.0000
    31 H3      31.3661  13.2455  72.3120   H         1 RES1   0.0000
    32 H4      31.7834   7.3742  67.4955   H         1 RES1   0.0000
    33 H5      30.8796   9.0637  69.0440   H         1 RES1   0.0000
    34 H6      32.6275   9.2816  68.7988   H         1 RES1   0.0000
    35 H7      30.9154  10.5078  64.6473   H         1 RES1   0.0000
    36 H8      30.9925  12.1853  66.4786   H         1 RES1   0.0000
    37 H9      27.0477   2.6589  65.1959   H         1 RES1   0.0000
    38 H10     27.1533   6.6380  63.7553   H         1 RES1   0.0000
    39 H11     32.6430  10.7338  70.6417   H         1 RES1   0.0000
    40 H12     31.2474  13.6182  68.0072   H         1 RES1   0.0000
    41 H13     24.4193   3.9463  61.6186   H         1 RES1   0.0000
    42 H14     25.6395   5.2368  61.7097   H         1 RES1   0.0000
    43 H15     25.0072   3.1431  63.9410   H         1 RES1   0.0000
    44 H16     24.4495   6.2150  63.7942   H         1 RES1   0.0000
    45 H17     23.2293   4.9245  63.7031   H         1 RES1   0.0000
    46 H18     32.4258  12.9551  72.0941   H         1 RES1   0.0000
    47 H19     30.4412   5.7491  65.7680   H         1 RES1   0.0000
    48 H20     32.0499   7.0259  65.1281   H         1 RES1   0.0000
    49 H21     31.8028   8.3481  63.9649   H         1 RES1   0.0000
@<TRIPOS>BOND
     1     1    22    2
     2     2     4    1
     3     2    13    1
     4     3     5    1
     5     3    14    1
     6     4     7    2
     7     5     8    2
     8     6    22   am
     9     6    23    1
    10     7    10    1
    11     8    11    1
    12     9    12    1
    13     9    23    2
    14    10    13    2
    15    11    14    2
    16    12    24    1
    17    13    15    1
    18    14    15    1
    19    15    16    1
    20    15    20    1
    21    16    17    2
    22    17    18    1
    23    18    19    2
    24    18    21    1
    25    19    20    1
    26    21    22    1
    27    23    25    1
    28    24    25    2
    29    24    26    1
    30    26    27    1
    31    26    28    1
    32    27    28    1
    33     8    29    1
    34     4    30    1
    35     5    31    1
    36    19    32    1
    37    20    33    1
    38    20    34    1
    39    17    35    1
    40    16    36    1
    41    12    37    1
    42    25    38    1
    43    10    39    1
    44    11    40    1
    45    27    41    1
    46    27    42    1
    47    26    43    1
    48    28    44    1
    49    28    45    1
    50     7    46    1
    51     6    47    1
    52    21    48    1
    53    21    49    1
@<TRIPOS>SUBSTRUCTURE
     1 RES1        1 GROUP             0 ****  ****    0  
@<TRIPOS>MOLECULE
2W05:A:FRT1299
    56    58     1     0     0
SMALL
NO_CHARGES
****
Generated from the CSD

@<TRIPOS>ATOM
     1 C1      26.2308   5.1270  63.7190   C.2       1 RES1   0.0000
     2 N2      27.2198   5.8190  64.3590   N.2       1 RES1   0.0000
     3 C3      28.1098   5.1650  65.1240   C.2       1 RES1   0.0000
     4 N4      28.1158   3.8450  65.3240   N.2       1 RES1   0.0000
     5 C5      27.1668   3.1050  64.7220   C.2       1 RES1   0.0000
     6 C6      26.1758   3.6890  63.8930   C.2       1 RES1   0.0000
     7 N7      29.1068   6.0059  65.7470   N.pl3     1 RES1   0.0000
     8 C8      29.8858   7.1669  65.3660   C.2       1 RES1   0.0000
     9 C9      29.7438   7.8409  64.1100   C.2       1 RES1   0.0000
    10 C10     30.5398   8.9659  63.8040   C.2       1 RES1   0.0000
    11 C11     31.4817   9.4189  64.7540   C.2       1 RES1   0.0000
    12 C12     31.6477   8.7779  66.0050   C.2       1 RES1   0.0000
    13 C13     30.8467   7.6499  66.3080   C.2       1 RES1   0.0000
    14 S14     32.4637  10.7939  64.3760   S.o2      1 RES1   0.0000
    15 N15     31.5537  11.8099  63.2990   N.pl3     1 RES1   0.0000
    16 C16     31.0757  13.0409  63.9620   C.3       1 RES1   0.0000
    17 C17     30.2968  13.9209  62.9820   C.3       1 RES1   0.0000
    18 O18     29.8518  15.1129  63.6570   O.3       1 RES1   0.0000
    19 C19     29.1018  16.0279  62.8240   C.3       1 RES1   0.0000
    20 C20     25.2788   5.8340  62.8880   C.2       1 RES1   0.0000
    21 N21     25.4998   7.0359  62.1260   N.pl3     1 RES1   0.0000
    22 C22     24.1968   7.1579  61.5620   C.2       1 RES1   0.0000
    23 N23     23.2258   6.2389  61.8520   N.2       1 RES1   0.0000
    24 C24     23.9238   5.4080  62.6890   C.2       1 RES1   0.0000
    25 C25     26.7688   7.8779  61.9720   C.3       1 RES1   0.0000
    26 C26     27.2888   7.8769  60.5210   C.3       1 RES1   0.0000
    27 C27     26.5638   9.3299  62.4820   C.3       1 RES1   0.0000
    28 C28     23.7488   8.2809  60.6010   C.3       1 RES1   0.0000
    29 O29     32.8007  11.6029  65.7080   O.2       1 RES1   0.0000
    30 O30     33.7987  10.3329  63.6440   O.2       1 RES1   0.0000
    31 H1      23.4960   4.5204  63.1528   H         1 RES1   0.0000
    32 H2      27.5384   7.4215  62.5928   H         1 RES1   0.0000
    33 H3      26.5257   8.2877  59.8616   H         1 RES1   0.0000
    34 H4      28.1894   8.4859  60.4577   H         1 RES1   0.0000
    35 H5      27.5187   6.8563  60.2185   H         1 RES1   0.0000
    36 H6      26.2934   9.3094  63.5367   H         1 RES1   0.0000
    37 H7      27.4872   9.8931  62.3548   H         1 RES1   0.0000
    38 H8      25.7670   9.8057  61.9122   H         1 RES1   0.0000
    39 H9      24.3669   8.2596  59.7046   H         1 RES1   0.0000
    40 H10     22.7059   8.1292  60.3265   H         1 RES1   0.0000
    41 H11     23.8577   9.2457  61.0942   H         1 RES1   0.0000
    42 H12     31.9318  13.5984  64.3391   H         1 RES1   0.0000
    43 H13     30.4252  12.7694  64.7921   H         1 RES1   0.0000
    44 H14     30.9637   7.1463  67.2664   H         1 RES1   0.0000
    45 H15     29.4339  13.3719  62.6079   H         1 RES1   0.0000
    46 H16     30.9419  14.1950  62.1485   H         1 RES1   0.0000
    47 H17     31.3715  11.5837  62.3264   H         1 RES1   0.0000
    48 H18     32.3793   9.1460  66.7227   H         1 RES1   0.0000
    49 H19     30.4292   9.4773  62.8489   H         1 RES1   0.0000
    50 H20     28.2122  15.5273  62.4446   H         1 RES1   0.0000
    51 H21     28.8070  16.8957  63.4121   H         1 RES1   0.0000
    52 H22     29.7217  16.3493  61.9883   H         1 RES1   0.0000
    53 H23     27.1597   2.0269  64.8759   H         1 RES1   0.0000
    54 H24     25.4091   3.0854  63.4096   H         1 RES1   0.0000
    55 H25     29.3146   5.7064  66.6943   H         1 RES1   0.0000
    56 H26     29.0151   7.4822  63.3846   H         1 RES1   0.0000
@<TRIPOS>BOND
     1     1     2    2
     2     1     6    1
     3     1    20    1
     4     2     3    1
     5     3     4    2
     6     3     7    1
     7     4     5    1
     8     5     6    2
     9     7     8    1
    10     8     9    2
    11     8    13    1
    12     9    10    1
    13    10    11    2
    14    11    12    1
    15    11    14    1
    16    12    13    2
    17    14    15    1
    18    14    29    2
    19    14    30    2
    20    15    16    1
    21    16    17    1
    22    17    18    1
    23    18    19    1
    24    20    21    1
    25    20    24    2
    26    21    22    1
    27    21    25    1
    28    22    23    2
    29    22    28    1
    30    23    24    1
    31    25    26    1
    32    25    27    1
    33    24    31    1
    34    25    32    1
    35    26    33    1
    36    26    34    1
    37    26    35    1
    38    27    36    1
    39    27    37    1
    40    27    38    1
    41    28    39    1
    42    28    40    1
    43    28    41    1
    44    16    42    1
    45    16    43    1
    46    13    44    1
    47    17    45    1
    48    17    46    1
    49    15    47    1
    50    12    48    1
    51    10    49    1
    52    19    50    1
    53    19    51    1
    54    19    52    1
    55     5    53    1
    56     6    54    1
    57     7    55    1
    58     9    56    1
@<TRIPOS>SUBSTRUCTURE
     1 RES1        1 GROUP             0 ****  ****    0  
@<TRIPOS>MOLECULE
3QQK:A:X02497
    33    34     1     0     0
SMALL
NO_CHARGES
****
Generated from the CSD

@<TRIPOS>ATOM
     1 C1      31.3984   7.7631  64.2632   C.3       1 RES1   0.0000
     2 C2      31.0804   8.0111  65.5443   C.3       1 RES1   0.0000
     3 C3      29.7584   7.5951  66.1473   C.3       1 RES1   0.0000
     4 N4      29.6944   6.1121  66.2283   N.pl3     1 RES1   0.0000
     5 C5      28.7134   5.5541  65.4953   C.2       1 RES1   0.0000
     6 N6      28.4064   4.3311  65.5303   N.2       1 RES1   0.0000
     7 C7      27.3235   3.8941  64.6742   C.2       1 RES1   0.0000
     8 C8      26.8365   4.9291  63.9692   C.2       1 RES1   0.0000
     9 S9      27.6895   6.4611  64.3522   S.3       1 RES1   0.0000
    10 N10     26.8885   2.6450  64.5942   N.pl3     1 RES1   0.0000
    11 C11     25.7295   4.8791  62.9702   C.2       1 RES1   0.0000
    12 C12     25.2515   6.0941  62.1812   C.2       1 RES1   0.0000
    13 C13     26.1865   6.9241  61.4771   C.2       1 RES1   0.0000
    14 C14     25.7295   8.0521  60.7301   C.2       1 RES1   0.0000
    15 C15     24.3405   8.3552  60.6811   C.2       1 RES1   0.0000
    16 C16     23.4065   7.5311  61.3761   C.2       1 RES1   0.0000
    17 C17     23.8595   6.4031  62.1241   C.2       1 RES1   0.0000
    18 O18     25.1775   3.8031  62.7532   O.2       1 RES1   0.0000
    19 H1      26.1226   2.4133  63.9697   H         1 RES1   0.0000
    20 H2      27.3212   1.9199  65.1574   H         1 RES1   0.0000
    21 H3      27.2500   6.6926  61.5126   H         1 RES1   0.0000
    22 H4      26.4435   8.6795  60.1986   H         1 RES1   0.0000
    23 H5      30.3382   5.5649  66.7907   H         1 RES1   0.0000
    24 H6      23.9904   9.2160  60.1133   H         1 RES1   0.0000
    25 H7      31.1428   9.0913  65.6679   H         1 RES1   0.0000
    26 H8      31.8515   7.5318  66.1457   H         1 RES1   0.0000
    27 H9      30.6751   8.2480  63.6092   H         1 RES1   0.0000
    28 H10     32.3941   8.1517  64.0546   H         1 RES1   0.0000
    29 H11     31.3838   6.6885  64.0870   H         1 RES1   0.0000
    30 H12     22.3434   7.7635  61.3358   H         1 RES1   0.0000
    31 H13     23.1416   5.7772  62.6521   H         1 RES1   0.0000
    32 H14     28.9441   7.9599  65.5230   H         1 RES1   0.0000
    33 H15     29.6667   8.0174  67.1469   H         1 RES1   0.0000
@<TRIPOS>BOND
     1     1     2    1
     2     2     3    1
     3     3     4    1
     4     4     5    1
     5     5     6    2
     6     5     9    1
     7     6     7    1
     8     7     8    2
     9     7    10    1
    10     8     9    1
    11     8    11    1
    12    11    12    1
    13    11    18    2
    14    12    13    2
    15    12    17    1
    16    13    14    1
    17    14    15    2
    18    15    16    1
    19    16    17    2
    20    10    19    1
    21    10    20    1
    22    13    21    1
    23    14    22    1
    24     4    23    1
    25    15    24    1
    26     2    25    1
    27     2    26    1
    28     1    27    1
    29     1    28    1
    30     1    29    1
    31    16    30    1
    32    17    31    1
    33     3    32    1
    34     3    33    1
@<TRIPOS>SUBSTRUCTURE
     1 RES1        1 GROUP             0 ****  ****    0  
@<TRIPOS>MOLECULE
5K4J:A:6QB301
    49    52     1     0     0
SMALL
NO_CHARGES
****
Generated from the CSD

@<TRIPOS>ATOM
     1 C1      30.3805   8.0892  63.8760   C.2       1 RES1   0.0000
     2 C2      31.1515   9.2672  63.9080   C.2       1 RES1   0.0000
     3 C3      28.7014   5.7261  65.0710   C.2       1 RES1   0.0000
     4 C4      27.3844   3.7721  64.8900   C.2       1 RES1   0.0000
     5 C5      26.5864   7.9042  62.4030   C.2       1 RES1   0.0000
     6 C6      25.0714   6.0901  61.9390   C.2       1 RES1   0.0000
     7 C7      24.4774   8.9072  59.5750   C.3       1 RES1   0.0000
     8 C8      22.1303   9.1782  58.9460   C.2       1 RES1   0.0000
     9 C9      20.5563  10.4982  60.1320   C.2       1 RES1   0.0000
    10 C10     31.5645   8.1322  67.3190   C.3       1 RES1   0.0000
    11 N11     31.2205   8.3082  65.9020   N.pl3     1 RES1   0.0000
    12 C12     30.4105   7.5132  65.1210   C.2       1 RES1   0.0000
    13 N13     31.6735   9.3942  65.1080   N.2       1 RES1   0.0000
    14 N14     29.7974   6.3531  65.5730   N.pl3     1 RES1   0.0000
    15 N15     28.4414   4.4791  65.4460   N.2       1 RES1   0.0000
    16 C16     26.5384   4.4391  64.0030   C.2       1 RES1   0.0000
    17 C17     26.8684   5.7791  63.6700   C.2       1 RES1   0.0000
    18 N18     27.9454   6.3801  64.1800   N.2       1 RES1   0.0000
    19 C19     26.1334   6.5841  62.6560   C.2       1 RES1   0.0000
    20 C20     26.0014   8.6662  61.4510   C.2       1 RES1   0.0000
    21 N21     25.0054   8.1402  60.7110   N.am      1 RES1   0.0000
    22 C22     24.5134   6.9071  60.9350   C.2       1 RES1   0.0000
    23 O23     23.6084   6.4711  60.2280   O.2       1 RES1   0.0000
    24 C24     25.5744   9.8542  59.0010   C.3       1 RES1   0.0000
    25 O25     25.2634  10.1212  57.6080   O.3       1 RES1   0.0000
    26 C26     23.1273   9.5182  59.8400   C.2       1 RES1   0.0000
    27 C27     20.8503   9.6652  59.0730   C.2       1 RES1   0.0000
    28 C28     21.5573  10.8522  61.0300   C.2       1 RES1   0.0000
    29 C29     22.8573  10.3632  60.8890   C.2       1 RES1   0.0000
    30 F30     21.2423  11.6693  62.0580   F         1 RES1   0.0000
    31 Cl31    18.9353  11.0952  60.2970   Cl        1 RES1   0.0000
    32 H1      20.0818   9.3975  58.3494   H         1 RES1   0.0000
    33 H2      29.8494   7.7005  63.0084   H         1 RES1   0.0000
    34 H3      23.6385  10.6448  61.5935   H         1 RES1   0.0000
    35 H4      27.2196   2.7249  65.1393   H         1 RES1   0.0000
    36 H5      27.4151   8.3090  62.9822   H         1 RES1   0.0000
    37 H6      24.6723   5.0970  62.1401   H         1 RES1   0.0000
    38 H7      24.3044   8.1695  58.7928   H         1 RES1   0.0000
    39 H8      22.3638   8.5079  58.1201   H         1 RES1   0.0000
    40 H9      32.0652   7.1747  67.4548   H         1 RES1   0.0000
    41 H10     32.2276   8.9365  67.6342   H         1 RES1   0.0000
    42 H11     30.6558   8.1549  67.9187   H         1 RES1   0.0000
    43 H12     30.2231   5.9161  66.3842   H         1 RES1   0.0000
    44 H13     24.3724  10.5550  57.5450   H         1 RES1   0.0000
    45 H14     25.6601   3.9512  63.5830   H         1 RES1   0.0000
    46 H15     31.2919   9.9576  63.0776   H         1 RES1   0.0000
    47 H16     26.5497   9.3754  59.0753   H         1 RES1   0.0000
    48 H17     25.5848  10.7879  59.5614   H         1 RES1   0.0000
    49 H18     26.3307   9.6908  61.2847   H         1 RES1   0.0000
@<TRIPOS>BOND
     1     1     2    1
     2     1    12    2
     3     2    13    2
     4     3    14    1
     5     3    15    1
     6     3    18    2
     7     4    15    2
     8     4    16    1
     9     5    19    1
    10     5    20    2
    11     6    19    2
    12     6    22    1
    13     7    21    1
    14     7    24    1
    15     7    26    1
    16     8    26    2
    17     8    27    1
    18     9    27    2
    19     9    28    1
    20     9    31    1
    21    10    11    1
    22    11    12    1
    23    11    13    1
    24    12    14    1
    25    16    17    2
    26    17    18    1
    27    17    19    1
    28    20    21    1
    29    21    22   am
    30    22    23    2
    31    24    25    1
    32    26    29    1
    33    28    29    2
    34    28    30    1
    35    27    32    1
    36     1    33    1
    37    29    34    1
    38     4    35    1
    39     5    36    1
    40     6    37    1
    41     7    38    1
    42     8    39    1
    43    10    40    1
    44    10    41    1
    45    10    42    1
    46    14    43    1
    47    25    44    1
    48    16    45    1
    49     2    46    1
    50    24    47    1
    51    24    48    1
    52    20    49    1
@<TRIPOS>SUBSTRUCTURE
     1 RES1        1 GROUP             0 ****  ****    0  
@<TRIPOS>MOLECULE
6RIJ:A:K4W301
    53    54     1     0     0
SMALL
NO_CHARGES
****
Generated from the CSD

@<TRIPOS>ATOM
     1 C1      25.9879  11.3870  61.5198   C.3       1 RES1   0.0000
     2 C2      25.3279  10.0380  61.2898   C.3       1 RES1   0.0000
     3 C3      26.3589   8.9780  60.9448   C.3       1 RES1   0.0000
     4 C4      25.6259   7.6830  60.5648   C.3       1 RES1   0.0000
     5 O5      26.0799   7.4380  59.2437   O.3       1 RES1   0.0000
     6 N6      27.4238   8.8850  61.9508   N.pl3     1 RES1   0.0000
     7 C7      27.5968   7.8970  62.8429   C.2       1 RES1   0.0000
     8 N8      28.7558   7.8980  63.5219   N.2       1 RES1   0.0000
     9 N9      26.6668   6.9590  63.0679   N.2       1 RES1   0.0000
    10 C10     26.9078   5.9710  63.9309   C.2       1 RES1   0.0000
    11 N11     26.0109   4.9770  64.1019   N.pl3     1 RES1   0.0000
    12 C12     24.9169   4.7600  63.1659   C.3       1 RES1   0.0000
    13 C13     23.5769   5.1740  63.7329   C.3       1 RES1   0.0000
    14 C14     24.9209   3.2960  62.7859   C.3       1 RES1   0.0000
    15 C15     28.1128   5.9370  64.6110   C.2       1 RES1   0.0000
    16 N16     28.4078   4.9160  65.5330   N.2       1 RES1   0.0000
    17 O17     27.9708   3.7980  65.2710   O.2       1 RES1   0.0000
    18 C18     29.0408   6.9270  64.3890   C.2       1 RES1   0.0000
    19 N19     30.2377   6.8510  65.0170   N.pl3     1 RES1   0.0000
    20 C20     31.3537   7.6520  64.6340   C.3       1 RES1   0.0000
    21 C21     31.3447   8.7760  65.6110   C.2       1 RES1   0.0000
    22 C22     31.1617  10.0920  65.2010   C.2       1 RES1   0.0000
    23 C23     31.1447  11.1020  66.1690   C.2       1 RES1   0.0000
    24 C24     31.3237  10.7640  67.5301   C.2       1 RES1   0.0000
    25 O25     31.3037  11.7230  68.4931   O.3       1 RES1   0.0000
    26 C26     31.5177   9.4450  67.9081   C.2       1 RES1   0.0000
    27 C27     31.5197   8.4490  66.9471   C.2       1 RES1   0.0000
    28 H1      27.0672   7.3315  59.2474   H         1 RES1   0.0000
    29 H2      26.8433   9.3224  60.0323   H         1 RES1   0.0000
    30 H3      24.5461   7.8226  60.5885   H         1 RES1   0.0000
    31 H4      25.9011   6.8670  61.2313   H         1 RES1   0.0000
    32 H5      28.0971   9.6442  61.9742   H         1 RES1   0.0000
    33 H6      31.2331   8.0224  63.6171   H         1 RES1   0.0000
    34 H7      32.2802   7.0843  64.7060   H         1 RES1   0.0000
    35 H8      25.1084   5.3488  62.2700   H         1 RES1   0.0000
    36 H9      23.5997   6.2341  63.9812   H         1 RES1   0.0000
    37 H10     22.7980   4.9908  62.9942   H         1 RES1   0.0000
    38 H11     23.3684   4.5951  64.6314   H         1 RES1   0.0000
    39 H12     24.7814   2.6888  63.6790   H         1 RES1   0.0000
    40 H13     24.1113   3.1009  62.0842   H         1 RES1   0.0000
    41 H14     25.8729   3.0443  62.3209   H         1 RES1   0.0000
    42 H15     30.9948  12.1402  65.8764   H         1 RES1   0.0000
    43 H16     31.0340  10.3320  64.1465   H         1 RES1   0.0000
    44 H17     26.1016   4.3636  64.9055   H         1 RES1   0.0000
    45 H18     24.6180  10.1246  60.4686   H         1 RES1   0.0000
    46 H19     24.8010   9.7406  62.1953   H         1 RES1   0.0000
    47 H20     26.5134  11.6928  60.6163   H         1 RES1   0.0000
    48 H21     25.2269  12.1264  61.7649   H         1 RES1   0.0000
    49 H22     26.6965  11.3088  62.3430   H         1 RES1   0.0000
    50 H23     30.3447   6.2002  65.7885   H         1 RES1   0.0000
    51 H24     31.6679   9.1932  68.9569   H         1 RES1   0.0000
    52 H25     30.4250  12.1854  68.4816   H         1 RES1   0.0000
    53 H26     31.6586   7.4094  67.2400   H         1 RES1   0.0000
@<TRIPOS>BOND
     1     1     2    1
     2     2     3    1
     3     3     4    1
     4     3     6    1
     5     4     5    1
     6     6     7    1
     7     7     8    2
     8     7     9    1
     9     8    18    1
    10     9    10    2
    11    10    11    1
    12    10    15    1
    13    11    12    1
    14    12    13    1
    15    12    14    1
    16    15    16    1
    17    15    18    2
    18    16    17    2
    19    18    19    1
    20    19    20    1
    21    20    21    1
    22    21    22    2
    23    21    27    1
    24    22    23    1
    25    23    24    2
    26    24    25    1
    27    24    26    1
    28    26    27    2
    29     5    28    1
    30     3    29    1
    31     4    30    1
    32     4    31    1
    33     6    32    1
    34    20    33    1
    35    20    34    1
    36    12    35    1
    37    13    36    1
    38    13    37    1
    39    13    38    1
    40    14    39    1
    41    14    40    1
    42    14    41    1
    43    23    42    1
    44    22    43    1
    45    11    44    1
    46     2    45    1
    47     2    46    1
    48     1    47    1
    49     1    48    1
    50     1    49    1
    51    19    50    1
    52    26    51    1
    53    25    52    1
    54    27    53    1
@<TRIPOS>SUBSTRUCTURE
     1 RES1        1 GROUP             0 ****  ****    0  
@<TRIPOS>MOLECULE
6Q4F:A:26D301
    15    15     1     0     0
SMALL
NO_CHARGES
****
Generated from the CSD

@<TRIPOS>ATOM
     1 N1      29.1946   6.0458  66.2230   N.pl3     1 RES1   0.0000
     2 C2      28.3016   5.7258  65.3480   C.2       1 RES1   0.0000
     3 N3      27.8876   4.4439  65.3490   N.2       1 RES1   0.0000
     4 C4      27.8426   6.6918  64.4290   C.2       1 RES1   0.0000
     5 C5      26.9306   6.2978  63.4740   C.2       1 RES1   0.0000
     6 C6      26.5046   4.9918  63.4280   C.2       1 RES1   0.0000
     7 C7      27.0096   4.0909  64.3750   C.2       1 RES1   0.0000
     8 N8      26.6216   2.8459  64.3380   N.pl3     1 RES1   0.0000
     9 H1      25.9660   2.5396  63.6262   H         1 RES1   0.0000
    10 H2      26.9753   2.1836  65.0210   H         1 RES1   0.0000
    11 H3      25.7911   4.6648  62.6731   H         1 RES1   0.0000
    12 H4      29.5431   6.9981  66.2676   H         1 RES1   0.0000
    13 H5      29.5485   5.3452  66.8666   H         1 RES1   0.0000
    14 H6      28.1987   7.7200  64.4727   H         1 RES1   0.0000
    15 H7      26.5474   7.0212  62.7558   H         1 RES1   0.0000
@<TRIPOS>BOND
     1     1     2    1
     2     2     3    2
     3     2     4    1
     4     3     7    1
     5     4     5    2
     6     5     6    1
     7     6     7    2
     8     7     8    1
     9     8     9    1
    10     8    10    1
    11     6    11    1
    12     1    12    1
    13     1    13    1
    14     4    14    1
    15     5    15    1
@<TRIPOS>SUBSTRUCTURE
     1 RES1        1 GROUP             0 ****  ****    0  
@<TRIPOS>MOLECULE
6Q4E:A:HH5303
    15    16     1     0     0
SMALL
NO_CHARGES
****
Generated from the CSD

@<TRIPOS>ATOM
     1 C1      25.9447   3.3559  63.3788   C.2       1 RES1   0.0000
     2 C2      27.4787   4.3859  64.5298   C.2       1 RES1   0.0000
     3 N3      29.7326   6.4469  66.1518   N.pl3     1 RES1   0.0000
     4 N4      28.2456   6.9609  64.4378   N.2       1 RES1   0.0000
     5 C5      26.8707   5.2629  63.6158   C.2       1 RES1   0.0000
     6 N6      25.8907   4.5869  62.8979   N.2       1 RES1   0.0000
     7 C7      28.7986   6.0289  65.2778   C.2       1 RES1   0.0000
     8 C8      27.2917   6.5639  63.5988   C.2       1 RES1   0.0000
     9 I9      26.5537   7.9139  62.1879   I         1 RES1   0.0000
    10 N10     26.9047   3.1659  64.3418   N.pl3     1 RES1   0.0000
    11 N11     28.4906   4.7139  65.3648   N.2       1 RES1   0.0000
    12 H1      27.1375   2.2982  64.8142   H         1 RES1   0.0000
    13 H2      25.2833   2.5600  63.0395   H         1 RES1   0.0000
    14 H3      30.1638   5.7849  66.7890   H         1 RES1   0.0000
    15 H4      30.0059   7.4242  66.1738   H         1 RES1   0.0000
@<TRIPOS>BOND
     1     1     6    2
     2     1    10    1
     3     2     5    2
     4     2    10    1
     5     2    11    1
     6     3     7    1
     7     4     7    1
     8     4     8    2
     9     5     6    1
    10     5     8    1
    11     7    11    2
    12     8     9    1
    13    10    12    1
    14     1    13    1
    15     3    14    1
    16     3    15    1
@<TRIPOS>SUBSTRUCTURE
     1 RES1        1 GROUP             0 ****  ****    0  
@<TRIPOS>MOLECULE
6Q4D:A:HHT301
    22    22     1     0     0
SMALL
NO_CHARGES
****
Generated from the CSD

@<TRIPOS>ATOM
     1 C1      26.4805   7.8480  62.8844   C.2       1 RES1   0.0000
     2 C2      26.6355   7.2550  61.6474   C.2       1 RES1   0.0000
     3 C3      26.5605   8.0060  60.4964   C.2       1 RES1   0.0000
     4 C4      26.3645   9.3711  60.5434   C.2       1 RES1   0.0000
     5 C5      26.3505  10.1981  59.3054   C.3       1 RES1   0.0000
     6 C6      25.0285  10.4961  58.6494   C.2       1 RES1   0.0000
     7 C7      26.2005   9.2131  62.9654   C.2       1 RES1   0.0000
     8 C8      25.8345  11.9781  63.0354   C.3       1 RES1   0.0000
     9 O9      25.9175  11.3071  61.7954   O.3       1 RES1   0.0000
    10 C10     26.1795   9.9781  61.8224   C.2       1 RES1   0.0000
    11 Br11    26.6695   6.8270  64.4244   Br        1 RES1   0.0000
    12 O12     25.0445  11.3011  57.7015   O.3       1 RES1   0.0000
    13 O13     24.0095   9.9061  59.0494   O.2       1 RES1   0.0000
    14 H1      25.6308  10.9516  56.9803   H         1 RES1   0.0000
    15 H2      26.7812  11.8810  63.5648   H         1 RES1   0.0000
    16 H3      25.6208  13.0321  62.8642   H         1 RES1   0.0000
    17 H4      25.0375  11.5386  63.6333   H         1 RES1   0.0000
    18 H5      26.8187   6.1835  61.5817   H         1 RES1   0.0000
    19 H6      25.9989   9.6719  63.9323   H         1 RES1   0.0000
    20 H7      26.9648   9.6826  58.5687   H         1 RES1   0.0000
    21 H8      26.8078  11.1547  59.5539   H         1 RES1   0.0000
    22 H9      26.6577   7.5134  59.5301   H         1 RES1   0.0000
@<TRIPOS>BOND
     1     1     2    2
     2     1     7    1
     3     1    11    1
     4     2     3    1
     5     3     4    2
     6     4     5    1
     7     4    10    1
     8     5     6    1
     9     6    12    1
    10     6    13    2
    11     7    10    2
    12     8     9    1
    13     9    10    1
    14    12    14    1
    15     8    15    1
    16     8    16    1
    17     8    17    1
    18     2    18    1
    19     7    19    1
    20     5    20    1
    21     5    21    1
    22     3    22    1
@<TRIPOS>SUBSTRUCTURE
     1 RES1        1 GROUP             0 ****  ****    0  
@<TRIPOS>MOLECULE
1H1P:A:CMG1298
    35    37     1     0     0
SMALL
NO_CHARGES
****
Generated from the CSD

@<TRIPOS>ATOM
     1 N1      29.0686   6.6518  64.6530   N.2       1 RES1   0.0000
     2 C2      29.7176   5.5968  65.3760   C.2       1 RES1   0.0000
     3 N3      29.0916   4.4489  65.4360   N.2       1 RES1   0.0000
     4 C4      27.8335   4.2749  64.7910   C.2       1 RES1   0.0000
     5 C5      27.2805   5.3198  64.1599   C.2       1 RES1   0.0000
     6 C6      27.9845   6.6098  64.0369   C.2       1 RES1   0.0000
     7 O7      27.3935   7.6068  63.3789   O.3       1 RES1   0.0000
     8 C8      28.1655   8.6377  62.8049   C.3       1 RES1   0.0000
     9 N9      26.0614   4.7699  63.6909   N.2       1 RES1   0.0000
    10 C10     26.0074   3.5289  64.0009   C.2       1 RES1   0.0000
    11 N11     27.0735   3.2139  64.7000   N.pl3     1 RES1   0.0000
    12 N12     30.8957   5.8588  65.9311   N.pl3     1 RES1   0.0000
    13 C13     27.4065   9.9777  62.7039   C.3       1 RES1   0.0000
    14 C14     28.1685  10.8457  61.6528   C.3       1 RES1   0.0000
    15 C15     27.3815  12.0966  61.1968   C.3       1 RES1   0.0000
    16 C16     25.9324  11.8176  60.8197   C.3       1 RES1   0.0000
    17 C17     25.1464  11.0787  61.9628   C.3       1 RES1   0.0000
    18 C18     25.9124   9.7997  62.4288   C.3       1 RES1   0.0000
    19 H1      25.4442   9.4463  63.3463   H         1 RES1   0.0000
    20 H2      25.8041   9.0445  61.6518   H         1 RES1   0.0000
    21 H3      25.2057   2.8441  63.7284   H         1 RES1   0.0000
    22 H4      27.2736   2.3032  65.1011   H         1 RES1   0.0000
    23 H5      27.8852  12.5197  60.3289   H         1 RES1   0.0000
    24 H6      27.3897  12.8208  62.0101   H         1 RES1   0.0000
    25 H7      24.1641  10.7905  61.5914   H         1 RES1   0.0000
    26 H8      25.0307  11.7534  62.8097   H         1 RES1   0.0000
    27 H9      25.9173  11.1951  59.9263   H         1 RES1   0.0000
    28 H10     25.4371  12.7646  60.6106   H         1 RES1   0.0000
    29 H11     28.3714  10.2288  60.7786   H         1 RES1   0.0000
    30 H12     29.1095  11.1723  62.0929   H         1 RES1   0.0000
    31 H13     28.4628   8.3314  61.8030   H         1 RES1   0.0000
    32 H14     29.0535   8.7876  63.4171   H         1 RES1   0.0000
    33 H15     31.3840   5.1362  66.4503   H         1 RES1   0.0000
    34 H16     31.3075   6.7816  65.8360   H         1 RES1   0.0000
    35 H17     27.5015  10.4773  63.6669   H         1 RES1   0.0000
@<TRIPOS>BOND
     1     1     2    2
     2     1     6    1
     3     2     3    1
     4     2    12    1
     5     3     4    2
     6     4     5    1
     7     4    11    1
     8     5     6    2
     9     5     9    1
    10     6     7    1
    11     7     8    1
    12     8    13    1
    13     9    10    2
    14    10    11    1
    15    13    14    1
    16    13    18    1
    17    14    15    1
    18    15    16    1
    19    16    17    1
    20    17    18    1
    21    18    19    1
    22    18    20    1
    23    10    21    1
    24    11    22    1
    25    15    23    1
    26    15    24    1
    27    17    25    1
    28    17    26    1
    29    16    27    1
    30    16    28    1
    31    14    29    1
    32    14    30    1
    33     8    31    1
    34     8    32    1
    35    12    33    1
    36    12    34    1
    37    13    35    1
@<TRIPOS>SUBSTRUCTURE
     1 RES1        1 GROUP             0 ****  ****    0  
@<TRIPOS>MOLECULE
2W1H:A:L0F1299
    36    39     1     0     0
SMALL
NO_CHARGES
****
Generated from the CSD

@<TRIPOS>ATOM
     1 O1      25.0108   5.3440  62.3615   O.2       1 RES1   0.0000
     2 C2      25.8978   6.1869  62.4085   C.2       1 RES1   0.0000
     3 N3      27.0038   6.0239  63.2065   N.am      1 RES1   0.0000
     4 C4      27.2868   4.9160  64.0685   C.2       1 RES1   0.0000
     5 C5      26.6128   3.7330  64.1895   C.2       1 RES1   0.0000
     6 N6      27.2488   2.9830  65.1236   N.pl3     1 RES1   0.0000
     7 N7      28.3488   3.7110  65.5956   N.2       1 RES1   0.0000
     8 C8      28.3807   4.8710  64.9665   C.2       1 RES1   0.0000
     9 C9      29.3767   5.9490  65.1616   C.2       1 RES1   0.0000
    10 N10     29.3567   7.1059  64.5365   N.2       1 RES1   0.0000
    11 C11     30.3917   7.8689  64.9465   C.2       1 RES1   0.0000
    12 C12     30.8587   9.1709  64.5875   C.2       1 RES1   0.0000
    13 C13     31.9987   9.6919  65.1966   C.2       1 RES1   0.0000
    14 C14     32.7287   8.9239  66.1316   C.2       1 RES1   0.0000
    15 C15     32.2927   7.6369  66.4936   C.2       1 RES1   0.0000
    16 C16     31.1417   7.0829  65.8776   C.2       1 RES1   0.0000
    17 N17     30.4557   5.8910  66.0066   N.pl3     1 RES1   0.0000
    18 C18     25.7898   7.4269  61.5805   C.2       1 RES1   0.0000
    19 C19     24.8968   7.4839  60.4684   C.2       1 RES1   0.0000
    20 C20     24.8008   8.6579  59.6944   C.2       1 RES1   0.0000
    21 C21     25.5848   9.7849  60.0154   C.2       1 RES1   0.0000
    22 C22     26.4728   9.7449  61.1135   C.2       1 RES1   0.0000
    23 C23     26.5778   8.5749  61.8975   C.2       1 RES1   0.0000
    24 H1      25.5056  10.6897  59.4146   H         1 RES1   0.0000
    25 H2      27.2609   8.5481  62.7452   H         1 RES1   0.0000
    26 H3      26.9750   2.0543  65.4282   H         1 RES1   0.0000
    27 H4      25.7221   3.4437  63.6338   H         1 RES1   0.0000
    28 H5      27.6939   6.7678  63.1827   H         1 RES1   0.0000
    29 H6      27.0773  10.6177  61.3558   H         1 RES1   0.0000
    30 H7      30.3247   9.7549  63.8393   H         1 RES1   0.0000
    31 H8      24.2874   6.6171  60.2170   H         1 RES1   0.0000
    32 H9      30.7038   5.1163  66.6137   H         1 RES1   0.0000
    33 H10     24.1191   8.6946  58.8460   H         1 RES1   0.0000
    34 H11     32.3298  10.6996  64.9499   H         1 RES1   0.0000
    35 H12     33.6358   9.3318  66.5752   H         1 RES1   0.0000
    36 H13     32.8375   7.0672  67.2450   H         1 RES1   0.0000
@<TRIPOS>BOND
     1     1     2    2
     2     2     3   am
     3     2    18    1
     4     3     4    1
     5     4     5    2
     6     4     8    1
     7     5     6    1
     8     6     7    1
     9     7     8    2
    10     8     9    1
    11     9    10    2
    12     9    17    1
    13    10    11    1
    14    11    12    2
    15    11    16    1
    16    12    13    1
    17    13    14    2
    18    14    15    1
    19    15    16    2
    20    16    17    1
    21    18    19    2
    22    18    23    1
    23    19    20    1
    24    20    21    2
    25    21    22    1
    26    22    23    2
    27    21    24    1
    28    23    25    1
    29     6    26    1
    30     5    27    1
    31     3    28    1
    32    22    29    1
    33    12    30    1
    34    19    31    1
    35    17    32    1
    36    20    33    1
    37    13    34    1
    38    14    35    1
    39    15    36    1
@<TRIPOS>SUBSTRUCTURE
     1 RES1        1 GROUP             0 ****  ****    0  
@<TRIPOS>MOLECULE
3R71:A:X86800
    47    48     1     0     0
SMALL
USER_CHARGES
****
Generated from the CSD

@<TRIPOS>ATOM
     1 N1      30.1173   6.2192  64.6478   N.pl3     1 RES1   0.0000
     2 N2      26.8183   3.7401  64.6998   N.am      1 RES1   0.0000
     3 N3      31.3712   9.0702  67.7188   N.2       1 RES1   0.0000
     4 N4      27.6283   9.5562  62.3119   N.pl3     1 RES1   0.0000
     5 N5      25.3484   8.0812  62.6869   N.pl3     1 RES1   1.0000
     6 C6      26.5494   6.4042  63.8278   C.2       1 RES1   0.0000
     7 C7      27.7813   5.8932  64.3478   C.2       1 RES1   0.0000
     8 C8      28.9773   6.6612  64.1738   C.2       1 RES1   0.0000
     9 C9      28.9003   7.9202  63.4658   C.2       1 RES1   0.0000
    10 C10     27.6753   8.4202  62.9468   C.2       1 RES1   0.0000
    11 C11     26.4824   7.6622  63.1318   C.2       1 RES1   0.0000
    12 C12     27.7813   4.6691  64.9988   C.2       1 RES1   0.0000
    13 C13     31.4322   6.9372  64.5258   C.3       1 RES1   0.0000
    14 C14     31.5342   8.1262  65.4698   C.2       1 RES1   0.0000
    15 C15     31.2862   8.0062  66.8578   C.2       1 RES1   0.0000
    16 C16     31.7112  10.2913  67.2018   C.2       1 RES1   0.0000
    17 C17     31.9752  10.5073  65.8378   C.2       1 RES1   0.0000
    18 C18     31.8802   9.4032  64.9728   C.2       1 RES1   0.0000
    19 C19     28.8113  10.4443  62.1309   C.3       1 RES1   0.0000
    20 C20     28.4703  11.5273  61.1099   C.3       1 RES1   0.0000
    21 C21     27.6153  12.5953  61.7829   C.3       1 RES1   0.0000
    22 C22     25.4524  12.5343  62.8719   C.3       1 RES1   0.0000
    23 O23     28.6403   4.3781  65.8178   O.2       1 RES1   0.0000
    24 O24     25.2284   9.2372  62.0909   O.3       1 RES1  -1.0000
    25 O25     24.2584   7.3632  62.8579   O.2       1 RES1   0.0000
    26 O26     26.2884  12.1583  61.8179   O.3       1 RES1   0.0000
    27 H1      29.8094   8.5032  63.3261   H         1 RES1   0.0000
    28 H2      27.9179  11.0865  60.2813   H         1 RES1   0.0000
    29 H3      29.3884  11.9776  60.7354   H         1 RES1   0.0000
    30 H4      26.7400   9.8521  61.9200   H         1 RES1   0.0000
    31 H5      25.3706  13.6198  62.9009   H         1 RES1   0.0000
    32 H6      24.4648  12.0997  62.7247   H         1 RES1   0.0000
    33 H7      25.8700  12.1765  63.8119   H         1 RES1   0.0000
    34 H8      31.5428   7.2928  63.5024   H         1 RES1   0.0000
    35 H9      32.2349   6.2382  64.7559   H         1 RES1   0.0000
    36 H10     31.0171   7.0299  67.2582   H         1 RES1   0.0000
    37 H11     31.7808  11.1389  67.8819   H         1 RES1   0.0000
    38 H12     32.2437  11.4946  65.4648   H         1 RES1   0.0000
    39 H13     32.0751   9.5332  63.9093   H         1 RES1   0.0000
    40 H14     29.6562   9.8581  61.7725   H         1 RES1   0.0000
    41 H15     29.0685  10.9077  63.0822   H         1 RES1   0.0000
    42 H16     27.6793  13.5241  61.2180   H         1 RES1   0.0000
    43 H17     27.9718  12.7626  62.7982   H         1 RES1   0.0000
    44 H18     26.8144   2.8426  65.1739   H         1 RES1   0.0000
    45 H19     26.1093   3.9498  64.0044   H         1 RES1   0.0000
    46 H20     25.6372   5.8248  63.9626   H         1 RES1   0.0000
    47 H21     30.1113   5.3273  65.1323   H         1 RES1   0.0000
@<TRIPOS>BOND
     1     1     8    1
     2     1    13    1
     3     2    12   am
     4     3    15    2
     5     3    16    1
     6     4    10    1
     7     4    19    1
     8     5    11    1
     9     5    24    1
    10     5    25    2
    11     6     7    2
    12     6    11    1
    13     7     8    1
    14     7    12    1
    15     8     9    2
    16     9    10    1
    17    10    11    2
    18    12    23    2
    19    13    14    1
    20    14    15    1
    21    14    18    2
    22    16    17    2
    23    17    18    1
    24    19    20    1
    25    20    21    1
    26    21    26    1
    27    22    26    1
    28     9    27    1
    29    20    28    1
    30    20    29    1
    31     4    30    1
    32    22    31    1
    33    22    32    1
    34    22    33    1
    35    13    34    1
    36    13    35    1
    37    15    36    1
    38    16    37    1
    39    17    38    1
    40    18    39    1
    41    19    40    1
    42    19    41    1
    43    21    42    1
    44    21    43    1
    45     2    44    1
    46     2    45    1
    47     6    46    1
    48     1    47    1
@<TRIPOS>SUBSTRUCTURE
     1 RES1        1 GROUP             0 ****  ****    0  
@<TRIPOS>MOLECULE
1H1R:A:6CP1298
    90    96     1     0     0
SMALL
NO_CHARGES
****
Generated from the CSD

@<TRIPOS>ATOM
     1 C1      28.3860   5.4889  65.1087   C.2       1 RES1   0.0000
     2 C2      25.3441   2.5039  63.5616   C.2       1 RES1   0.0000
     3 C3      26.5601   7.9858  62.8146   C.3       1 RES1   0.0000
     4 C4      26.0811   8.8948  61.6935   C.3       1 RES1   0.0000
     5 C5      26.5161   8.4618  60.2645   C.3       1 RES1   0.0000
     6 C6      26.0951   9.3798  59.1204   C.3       1 RES1   0.0000
     7 C7      26.5961  10.8848  59.3814   C.3       1 RES1   0.0000
     8 C8      26.1031  11.2928  60.7675   C.3       1 RES1   0.0000
     9 C9      26.5071  10.3518  61.9595   C.3       1 RES1   0.0000
    10 C10     31.5319   8.8148  66.4997   C.2       1 RES1   0.0000
    11 C11     31.7469   9.3288  65.2207   C.2       1 RES1   0.0000
    12 C12     31.1579   8.7308  64.0996   C.2       1 RES1   0.0000
    13 C13     30.3530   7.6108  64.2936   C.2       1 RES1   0.0000
    14 N14     27.5871   6.3909  64.2896   N.2       1 RES1   0.0000
    15 C15     26.5491   5.9449  63.6436   C.2       1 RES1   0.0000
    16 O16     25.8031   6.7619  62.9026   O.3       1 RES1   0.0000
    17 C17     26.1741   4.5499  63.7076   C.2       1 RES1   0.0000
    18 N18     25.1552   3.7059  63.1496   N.2       1 RES1   0.0000
    19 N19     26.4011   2.4749  64.3676   N.pl3     1 RES1   0.0000
    20 C20     26.9121   3.7029  64.4526   C.2       1 RES1   0.0000
    21 N21     28.0541   4.2179  65.1517   N.2       1 RES1   0.0000
    22 N22     29.4110   5.9399  65.7657   N.pl3     1 RES1   0.0000
    23 C23     30.1240   7.0669  65.5517   C.2       1 RES1   0.0000
    24 C24     30.7320   7.6658  66.6717   C.2       1 RES1   0.0000
    25 Cl25    32.2829   9.5508  67.9058   Cl        1 RES1   0.0000
    26 C26     28.3860   5.4889  65.1087   C.2       1 RES1   0.0000
    27 C27     25.3441   2.5039  63.5616   C.2       1 RES1   0.0000
    28 C28     26.5601   7.9858  62.8146   C.3       1 RES1   0.0000
    29 C29     26.0811   8.8948  61.6935   C.3       1 RES1   0.0000
    30 C30     26.5161   8.4618  60.2645   C.3       1 RES1   0.0000
    31 C31     26.0951   9.3798  59.1204   C.3       1 RES1   0.0000
    32 C32     26.5961  10.8848  59.3814   C.3       1 RES1   0.0000
    33 C33     26.1031  11.2928  60.7675   C.3       1 RES1   0.0000
    34 C34     26.5071  10.3518  61.9595   C.3       1 RES1   0.0000
    35 C35     30.9390   8.9488  64.2416   C.2       1 RES1   0.0000
    36 C36     31.6519   9.4048  65.3557   C.2       1 RES1   0.0000
    37 C37     31.6549   8.6688  66.5357   C.2       1 RES1   0.0000
    38 C38     30.9650   7.4498  66.6477   C.2       1 RES1   0.0000
    39 N39     27.5871   6.3909  64.2896   N.2       1 RES1   0.0000
    40 C40     26.5491   5.9449  63.6436   C.2       1 RES1   0.0000
    41 O41     25.8031   6.7619  62.9026   O.3       1 RES1   0.0000
    42 C42     26.1741   4.5499  63.7076   C.2       1 RES1   0.0000
    43 N43     25.1552   3.7059  63.1496   N.2       1 RES1   0.0000
    44 N44     26.4011   2.4749  64.3676   N.pl3     1 RES1   0.0000
    45 C45     26.9121   3.7029  64.4526   C.2       1 RES1   0.0000
    46 N46     28.0541   4.2179  65.1517   N.2       1 RES1   0.0000
    47 N47     29.4070   5.9489  65.7597   N.pl3     1 RES1   0.0000
    48 C48     30.2270   6.9939  65.5287   C.2       1 RES1   0.0000
    49 C49     30.2450   7.7588  64.3656   C.2       1 RES1   0.0000
    50 Cl50    30.9800   9.9748  62.8286   Cl        1 RES1   0.0000
    51 H1      25.0091   9.3741  59.0394   H         1 RES1   0.0000
    52 H2      26.5304   9.0148  58.1913   H         1 RES1   0.0000
    53 H3      29.6813   7.4002  63.5056   H         1 RES1   0.0000
    54 H4      26.1815  11.5518  58.6270   H         1 RES1   0.0000
    55 H5      27.6837  10.9272  59.3452   H         1 RES1   0.0000
    56 H6      24.9925   8.8747  61.7128   H         1 RES1   0.0000
    57 H7      26.4688   8.5202  63.7591   H         1 RES1   0.0000
    58 H8      27.6054   7.7366  62.6381   H         1 RES1   0.0000
    59 H9      24.7337   1.6430  63.2927   H         1 RES1   0.0000
    60 H10     25.0155  11.3348  60.7329   H         1 RES1   0.0000
    61 H11     26.4981  12.2850  60.9805   H         1 RES1   0.0000
    62 H12     27.5878  10.3872  62.0886   H         1 RES1   0.0000
    63 H13     26.0212  10.7029  62.8687   H         1 RES1   0.0000
    64 H14     24.7337   1.6430  63.2927   H         1 RES1   0.0000
    65 H15     32.2068  10.3401  65.2987   H         1 RES1   0.0000
    66 H16     32.2063   9.0470  67.3953   H         1 RES1   0.0000
    67 H17     30.9971   6.8716  67.5699   H         1 RES1   0.0000
    68 H18     29.7182   5.3680  66.5460   H         1 RES1   0.0000
    69 H19     26.7602   1.6519  64.8409   H         1 RES1   0.0000
    70 H20     25.0155  11.3348  60.7329   H         1 RES1   0.0000
    71 H21     26.4981  12.2850  60.9805   H         1 RES1   0.0000
    72 H22     26.1815  11.5518  58.6270   H         1 RES1   0.0000
    73 H23     27.6837  10.9272  59.3452   H         1 RES1   0.0000
    74 H24     30.5855   7.2443  67.6651   H         1 RES1   0.0000
    75 H25     27.5878  10.3872  62.0886   H         1 RES1   0.0000
    76 H26     26.0212  10.7029  62.8687   H         1 RES1   0.0000
    77 H27     25.0091   9.3741  59.0394   H         1 RES1   0.0000
    78 H28     26.5304   9.0148  58.1913   H         1 RES1   0.0000
    79 H29     26.0917   7.4774  60.0729   H         1 RES1   0.0000
    80 H30     27.6031   8.3967  60.2544   H         1 RES1   0.0000
    81 H31     24.9925   8.8747  61.7128   H         1 RES1   0.0000
    82 H32     26.4688   8.5202  63.7591   H         1 RES1   0.0000
    83 H33     27.6054   7.7366  62.6381   H         1 RES1   0.0000
    84 H34     32.3802  10.2054  65.0925   H         1 RES1   0.0000
    85 H35     29.6314   5.4254  66.5998   H         1 RES1   0.0000
    86 H36     31.3251   9.1316  63.1009   H         1 RES1   0.0000
    87 H37     29.8860   7.1442  63.4275   H         1 RES1   0.0000
    88 H38     26.7602   1.6519  64.8409   H         1 RES1   0.0000
    89 H39     26.0917   7.4774  60.0729   H         1 RES1   0.0000
    90 H40     27.6031   8.3967  60.2544   H         1 RES1   0.0000
@<TRIPOS>BOND
     1     1    14    2
     2     1    21    1
     3     1    22    1
     4    26    39    2
     5    26    46    1
     6    26    47    1
     7     2    18    2
     8     2    19    1
     9    27    43    2
    10    27    44    1
    11     3     4    1
    12     3    16    1
    13    28    29    1
    14    28    41    1
    15     4     5    1
    16     4     9    1
    17    29    30    1
    18    29    34    1
    19     5     6    1
    20    30    31    1
    21     6     7    1
    22    31    32    1
    23     7     8    1
    24    32    33    1
    25     8     9    1
    26    33    34    1
    27    10    11    2
    28    10    24    1
    29    10    25    1
    30    35    36    2
    31    35    49    1
    32    35    50    1
    33    11    12    1
    34    36    37    1
    35    12    13    2
    36    37    38    2
    37    13    23    1
    38    38    48    1
    39    14    15    1
    40    39    40    1
    41    15    16    1
    42    15    17    2
    43    40    41    1
    44    40    42    2
    45    17    18    1
    46    17    20    1
    47    42    43    1
    48    42    45    1
    49    19    20    1
    50    44    45    1
    51    20    21    2
    52    45    46    2
    53    22    23    1
    54    47    48    1
    55    23    24    2
    56    48    49    2
    57    31    51    1
    58    31    52    1
    59    49    53    1
    60    32    54    1
    61    32    55    1
    62    29    56    1
    63    28    57    1
    64    28    58    1
    65    27    59    1
    66    33    60    1
    67    33    61    1
    68    34    62    1
    69    34    63    1
    70     2    64    1
    71    36    65    1
    72    37    66    1
    73    38    67    1
    74    22    68    1
    75    44    69    1
    76     8    70    1
    77     8    71    1
    78     7    72    1
    79     7    73    1
    80    24    74    1
    81     9    75    1
    82     9    76    1
    83     6    77    1
    84     6    78    1
    85     5    79    1
    86     5    80    1
    87     4    81    1
    88     3    82    1
    89     3    83    1
    90    11    84    1
    91    47    85    1
    92    12    86    1
    93    13    87    1
    94    19    88    1
    95    30    89    1
    96    30    90    1
@<TRIPOS>SUBSTRUCTURE
     1 RES1        1 GROUP             0 ****  ****    0  
@<TRIPOS>MOLECULE
5LMK:A:6ZK301
    52    56     1     0     0
SMALL
NO_CHARGES
****
Generated from the CSD

@<TRIPOS>ATOM
     1 O1      25.5481  15.2315  55.3195   O.2       1 RES1   0.0000
     2 C2      26.5691  15.2805  55.9866   C.2       1 RES1   0.0000
     3 N3      27.5401  16.1435  55.6906   N.am      1 RES1   0.0000
     4 C4      26.7361  14.3295  57.1456   C.2       1 RES1   0.0000
     5 C5      27.3751  14.7085  58.3456   C.2       1 RES1   0.0000
     6 C6      27.5131  13.7915  59.4047   C.2       1 RES1   0.0000
     7 C7      26.2341  13.0334  57.0046   C.2       1 RES1   0.0000
     8 C8      26.3731  12.1284  58.0556   C.2       1 RES1   0.0000
     9 C9      26.9871  12.4984  59.2577   C.2       1 RES1   0.0000
    10 C10     27.0951  11.4094  60.2667   C.2       1 RES1   0.0000
    11 C11     28.3691  10.8674  60.4697   C.2       1 RES1   0.0000
    12 C12     28.5431   9.8133  61.3627   C.2       1 RES1   0.0000
    13 C13     25.9841  10.8634  60.9307   C.2       1 RES1   0.0000
    14 C14     26.1581   9.8013  61.8337   C.2       1 RES1   0.0000
    15 C15     27.4461   9.2893  62.0617   C.2       1 RES1   0.0000
    16 C16     27.7031   8.1323  62.9688   C.2       1 RES1   0.0000
    17 N17     26.7941   7.1202  63.0508   N.2       1 RES1   0.0000
    18 C18     27.1111   6.0742  63.8568   C.2       1 RES1   0.0000
    19 C19     26.3981   4.8312  64.2088   C.2       1 RES1   0.0000
    20 Br20    24.5941   4.2921  63.5288   Br        1 RES1   0.0000
    21 C21     28.9191   8.0243  63.6588   C.2       1 RES1   0.0000
    22 C22     29.1851   6.9182  64.4798   C.2       1 RES1   0.0000
    23 N23     28.2431   5.9532  64.5468   N.pl3     1 RES1   0.0000
    24 N24     28.3211   4.7682  65.2998   N.pl3     1 RES1   0.0000
    25 C25     27.1661   4.0661  65.0798   C.2       1 RES1   0.0000
    26 N26     30.3531   6.8222  65.1868   N.2       1 RES1   0.0000
    27 C27     31.4271   7.8193  65.1428   C.3       1 RES1   0.0000
    28 C28     31.5081   8.7003  66.3649   C.2       1 RES1   0.0000
    29 C29     31.4971   8.1573  67.6559   C.2       1 RES1   0.0000
    30 C30     31.5751   9.0163  68.7559   C.2       1 RES1   0.0000
    31 C31     31.6761  10.3943  68.5299   C.2       1 RES1   0.0000
    32 N32     31.6941  10.8884  67.2709   N.2       1 RES1   0.0000
    33 C33     31.6191  10.0843  66.1938   C.2       1 RES1   0.0000
    34 H1      29.5358   9.3938  61.5190   H         1 RES1   0.0000
    35 H2      31.6448  10.5101  65.1918   H         1 RES1   0.0000
    36 H3      31.7409  11.0757  69.3769   H         1 RES1   0.0000
    37 H4      31.5576   8.6208  69.7704   H         1 RES1   0.0000
    38 H5      31.4287   7.0802  67.8008   H         1 RES1   0.0000
    39 H6      25.9965  11.1133  57.9391   H         1 RES1   0.0000
    40 H7      31.2660   8.4557  64.2739   H         1 RES1   0.0000
    41 H8      32.3754   7.2944  65.0375   H         1 RES1   0.0000
    42 H9      26.9011   3.0986  65.5037   H         1 RES1   0.0000
    43 H10     29.0918   4.4852  65.8967   H         1 RES1   0.0000
    44 H11     29.6668   8.8093  63.5560   H         1 RES1   0.0000
    45 H12     29.2245  11.2700  59.9293   H         1 RES1   0.0000
    46 H13     25.7389  12.7330  56.0824   H         1 RES1   0.0000
    47 H14     28.0202  14.0809  60.3240   H         1 RES1   0.0000
    48 H15     27.7650  15.7196  58.4532   H         1 RES1   0.0000
    49 H16     28.3832  16.1720  56.2551   H         1 RES1   0.0000
    50 H17     27.4367  16.7724  54.9007   H         1 RES1   0.0000
    51 H18     25.3000   9.3777  62.3535   H         1 RES1   0.0000
    52 H19     24.9882  11.2633  60.7455   H         1 RES1   0.0000
@<TRIPOS>BOND
     1     1     2    2
     2     2     3   am
     3     2     4    1
     4     4     5    2
     5     4     7    1
     6     5     6    1
     7     6     9    2
     8     7     8    2
     9     8     9    1
    10     9    10    1
    11    10    11    2
    12    10    13    1
    13    11    12    1
    14    12    15    2
    15    13    14    2
    16    14    15    1
    17    15    16    1
    18    16    17    1
    19    16    21    2
    20    17    18    2
    21    18    19    1
    22    18    23    1
    23    19    20    1
    24    19    25    2
    25    21    22    1
    26    22    23    1
    27    22    26    2
    28    23    24    1
    29    24    25    1
    30    26    27    1
    31    27    28    1
    32    28    29    2
    33    28    33    1
    34    29    30    1
    35    30    31    2
    36    31    32    1
    37    32    33    2
    38    12    34    1
    39    33    35    1
    40    31    36    1
    41    30    37    1
    42    29    38    1
    43     8    39    1
    44    27    40    1
    45    27    41    1
    46    25    42    1
    47    24    43    1
    48    21    44    1
    49    11    45    1
    50     7    46    1
    51     6    47    1
    52     5    48    1
    53     3    49    1
    54     3    50    1
    55    14    51    1
    56    13    52    1
@<TRIPOS>SUBSTRUCTURE
     1 RES1        1 GROUP             0 ****  ****    0  
@<TRIPOS>MOLECULE
6Q4A:A:HGW301
    10    10     1     0     0
SMALL
NO_CHARGES
****
Generated from the CSD

@<TRIPOS>ATOM
     1 C1      27.6133   4.0119  64.9641   C.2       1 RES1   0.0000
     2 N2      28.0303   6.7078  65.1331   N.2       1 RES1   0.0000
     3 N3      28.5773   4.5239  65.8081   N.2       1 RES1   0.0000
     4 C4      28.7703   5.8509  65.8221   C.2       1 RES1   0.0000
     5 I5      25.4013   4.1179  62.8171   I         1 RES1   0.0000
     6 C6      26.8643   4.8469  64.1481   C.2       1 RES1   0.0000
     7 C7      27.0963   6.2068  64.2891   C.2       1 RES1   0.0000
     8 H1      27.4381   2.9374  64.9382   H         1 RES1   0.0000
     9 H2      26.5027   6.9013  63.6965   H         1 RES1   0.0000
    10 H3      29.5800   6.2464  66.4335   H         1 RES1   0.0000
@<TRIPOS>BOND
     1     1     3    2
     2     1     6    1
     3     2     4    2
     4     2     7    1
     5     3     4    1
     6     5     6    1
     7     6     7    2
     8     1     8    1
     9     7     9    1
    10     4    10    1
@<TRIPOS>SUBSTRUCTURE
     1 RES1        1 GROUP             0 ****  ****    0  
@<TRIPOS>MOLECULE
6Q4B:A:HHN301
    10    10     1     0     0
SMALL
NO_CHARGES
****
Generated from the CSD

@<TRIPOS>ATOM
     1 C1      27.0825   5.9949  64.1175   C.2       1 RES1   0.0000
     2 N2      28.5615   4.3790  65.7104   N.2       1 RES1   0.0000
     3 N3      27.9795   6.5339  64.9635   N.2       1 RES1   0.0000
     4 C4      28.6836   5.6979  65.7154   C.2       1 RES1   0.0000
     5 Br5     25.5345   3.9600  62.8955   Br        1 RES1   0.0000
     6 C6      26.8305   4.6280  64.0845   C.2       1 RES1   0.0000
     7 C7      27.6365   3.8180  64.8725   C.2       1 RES1   0.0000
     8 H1      26.5376   6.6490  63.4384   H         1 RES1   0.0000
     9 H2      27.5326   2.7351  64.8239   H         1 RES1   0.0000
    10 H3      29.4206   6.1304  66.3904   H         1 RES1   0.0000
@<TRIPOS>BOND
     1     1     3    2
     2     1     6    1
     3     2     4    2
     4     2     7    1
     5     3     4    1
     6     5     6    1
     7     6     7    2
     8     1     8    1
     9     7     9    1
    10     4    10    1
@<TRIPOS>SUBSTRUCTURE
     1 RES1        1 GROUP             0 ****  ****    0  
@<TRIPOS>MOLECULE
3R1S:A:X73647
    32    33     1     0     0
SMALL
USER_CHARGES
****
Generated from the CSD

@<TRIPOS>ATOM
     1 N1      29.7306   6.3921  64.8840   N.pl3     1 RES1   0.0000
     2 N2      26.9565   3.4151  64.6260   N.am      1 RES1   0.0000
     3 N3      31.5356   8.8292  67.8900   N.2       1 RES1   0.0000
     4 N4      24.7525   7.6242  62.9460   N.pl3     1 RES1   1.0000
     5 C5      26.1855   6.0761  63.9920   C.2       1 RES1   0.0000
     6 C6      27.4846   5.7431  64.5020   C.2       1 RES1   0.0000
     7 C7      28.5506   6.7062  64.4170   C.2       1 RES1   0.0000
     8 C8      28.2846   7.9912  63.8160   C.2       1 RES1   0.0000
     9 C9      26.9865   8.3062  63.3150   C.2       1 RES1   0.0000
    10 C10     25.9245   7.3482  63.3980   C.2       1 RES1   0.0000
    11 C11     27.6846   4.4941  65.0650   C.2       1 RES1   0.0000
    12 C12     30.9916   7.0782  64.5230   C.3       1 RES1   0.0000
    13 C13     31.3106   8.1382  65.5470   C.2       1 RES1   0.0000
    14 C14     31.2546   7.8772  66.9340   C.2       1 RES1   0.0000
    15 C15     31.8876  10.0882  67.4490   C.2       1 RES1   0.0000
    16 C16     31.9706  10.4402  66.0930   C.2       1 RES1   0.0000
    17 C17     31.6736   9.4402  65.1350   C.2       1 RES1   0.0000
    18 O18     28.5136   4.3321  65.9400   O.2       1 RES1   0.0000
    19 O19     24.5655   8.6662  62.1630   O.3       1 RES1  -1.0000
    20 O20     23.7095   6.8622  63.2430   O.2       1 RES1   0.0000
    21 Cl21    32.2476  11.2953  68.6140   Cl        1 RES1   0.0000
    22 H1      31.7254   9.6764  64.0732   H         1 RES1   0.0000
    23 H2      32.2534  11.4467  65.7881   H         1 RES1   0.0000
    24 H3      29.7861   5.6215  65.5422   H         1 RES1   0.0000
    25 H4      27.1048   2.5004  65.0402   H         1 RES1   0.0000
    26 H5      26.2702   3.5326  63.8874   H         1 RES1   0.0000
    27 H6      25.3822   5.3439  64.0593   H         1 RES1   0.0000
    28 H7      29.0832   8.7281  63.7442   H         1 RES1   0.0000
    29 H8      26.8017   9.2812  62.8666   H         1 RES1   0.0000
    30 H9      30.8824   7.5429  63.5442   H         1 RES1   0.0000
    31 H10     31.8019   6.3513  64.4913   H         1 RES1   0.0000
    32 H11     30.9764   6.8771  67.2633   H         1 RES1   0.0000
@<TRIPOS>BOND
     1     1     7    1
     2     1    12    1
     3     2    11   am
     4     3    14    2
     5     3    15    1
     6     4    10    1
     7     4    19    1
     8     4    20    2
     9     5     6    2
    10     5    10    1
    11     6     7    1
    12     6    11    1
    13     7     8    2
    14     8     9    1
    15     9    10    2
    16    11    18    2
    17    12    13    1
    18    13    14    1
    19    13    17    2
    20    15    16    2
    21    15    21    1
    22    16    17    1
    23    17    22    1
    24    16    23    1
    25     1    24    1
    26     2    25    1
    27     2    26    1
    28     5    27    1
    29     8    28    1
    30     9    29    1
    31    12    30    1
    32    12    31    1
    33    14    32    1
@<TRIPOS>SUBSTRUCTURE
     1 RES1        1 GROUP             0 ****  ****    0  
@<TRIPOS>MOLECULE
2UZO:A:C621297
    33    35     1     0     0
SMALL
NO_CHARGES
****
Generated from the CSD

@<TRIPOS>ATOM
     1 O1      33.6942  11.0303  66.1053   O.2       1 RES1   0.0000
     2 S2      33.2412  10.6982  64.7152   S.o2      1 RES1   0.0000
     3 O3      34.3922  10.1762  63.9272   O.2       1 RES1   0.0000
     4 N4      32.6582  12.0513  63.9942   N.pl3     1 RES1   0.0000
     5 C5      31.9782   9.4522  64.7822   C.2       1 RES1   0.0000
     6 C6      30.9592   9.4532  63.8412   C.2       1 RES1   0.0000
     7 C7      29.9852   8.4642  63.8722   C.2       1 RES1   0.0000
     8 C8      30.0202   7.4622  64.8472   C.2       1 RES1   0.0000
     9 C9      31.0482   7.4382  65.7823   C.2       1 RES1   0.0000
    10 C10     32.0342   8.4352  65.7533   C.2       1 RES1   0.0000
    11 C11     28.9762   6.4431  64.8532   C.2       1 RES1   0.0000
    12 O12     27.8162   6.5122  64.1522   O.3       1 RES1   0.0000
    13 C13     28.9952   5.2551  65.5063   C.2       1 RES1   0.0000
    14 C14     27.8452   4.6161  65.1973   C.2       1 RES1   0.0000
    15 C15     27.1362   5.4221  64.3422   C.2       1 RES1   0.0000
    16 C16     25.8432   5.1231  63.7512   C.2       1 RES1   0.0000
    17 C17     25.4052   5.8111  62.5952   C.2       1 RES1   0.0000
    18 S18     26.3702   6.8202  61.6351   S.3       1 RES1   0.0000
    19 C19     25.1172   7.1352  60.5941   C.2       1 RES1   0.0000
    20 N20     23.9742   6.4831  60.9511   N.am      1 RES1   0.0000
    21 C21     24.1172   5.7301  62.0851   C.2       1 RES1   0.0000
    22 O22     23.2111   5.0681  62.5952   O.2       1 RES1   0.0000
    23 O23     25.2122   7.8692  59.6071   O.2       1 RES1   0.0000
    24 H1      25.2061   4.3634  64.2016   H         1 RES1   0.0000
    25 H2      23.1061   6.5493  60.4293   H         1 RES1   0.0000
    26 H3      29.7869   4.8859  66.1565   H         1 RES1   0.0000
    27 H4      32.8431   8.4223  66.4823   H         1 RES1   0.0000
    28 H5      31.0878   6.6501  66.5328   H         1 RES1   0.0000
    29 H6      27.5365   3.6373  65.5615   H         1 RES1   0.0000
    30 H7      29.1873   8.4688  63.1311   H         1 RES1   0.0000
    31 H8      30.9231  10.2295  63.0783   H         1 RES1   0.0000
    32 H9      32.3063  12.0081  63.0431   H         1 RES1   0.0000
    33 H10     32.6494  12.9318  64.4991   H         1 RES1   0.0000
@<TRIPOS>BOND
     1     1     2    2
     2     2     3    2
     3     2     4    1
     4     2     5    1
     5     5     6    2
     6     5    10    1
     7     6     7    1
     8     7     8    2
     9     8     9    1
    10     8    11    1
    11     9    10    2
    12    11    12    1
    13    11    13    2
    14    12    15    1
    15    13    14    1
    16    14    15    2
    17    15    16    1
    18    16    17    2
    19    17    18    1
    20    17    21    1
    21    18    19    1
    22    19    20   am
    23    19    23    2
    24    20    21   am
    25    21    22    2
    26    16    24    1
    27    20    25    1
    28    13    26    1
    29    10    27    1
    30     9    28    1
    31    14    29    1
    32     7    30    1
    33     6    31    1
    34     4    32    1
    35     4    33    1
@<TRIPOS>SUBSTRUCTURE
     1 RES1        1 GROUP             0 ****  ****    0  
@<TRIPOS>MOLECULE
2UZN:A:C961299
    37    39     1     0     0
SMALL
NO_CHARGES
****
Generated from the CSD

@<TRIPOS>ATOM
     1 O1      33.9253  10.9240  65.7115   O.2       1 RES1   0.0000
     2 S2      32.8353  11.2100  64.8165   S.o2      1 RES1   0.0000
     3 O3      32.1513  12.3950  65.2595   O.2       1 RES1   0.0000
     4 N4      33.4033  11.4440  63.3385   N.pl3     1 RES1   0.0000
     5 C5      31.7113   9.8560  64.8095   C.2       1 RES1   0.0000
     6 C6      30.6822   9.8240  63.8755   C.2       1 RES1   0.0000
     7 C7      29.7772   8.7760  63.8835   C.2       1 RES1   0.0000
     8 C8      29.8982   7.7530  64.8175   C.2       1 RES1   0.0000
     9 C9      30.9202   7.7850  65.7595   C.2       1 RES1   0.0000
    10 C10     31.8263   8.8430  65.7585   C.2       1 RES1   0.0000
    11 C11     28.8972   6.6400  64.8055   C.2       1 RES1   0.0000
    12 O12     27.7902   6.6020  64.0045   O.3       1 RES1   0.0000
    13 C13     28.8892   5.5050  65.6105   C.2       1 RES1   0.0000
    14 C14     27.7702   4.7560  65.2605   C.2       1 RES1   0.0000
    15 C15     27.1062   5.4440  64.2465   C.2       1 RES1   0.0000
    16 C16     25.8452   5.0470  63.5755   C.2       1 RES1   0.0000
    17 C17     25.3892   5.7700  62.5356   C.2       1 RES1   0.0000
    18 S18     26.2362   7.0000  61.8166   S.3       1 RES1   0.0000
    19 C19     25.0542   7.2230  60.6726   C.2       1 RES1   0.0000
    20 N20     25.1172   8.0980  59.7536   N.pl3     1 RES1   0.0000
    21 N21     24.0342   6.3720  60.8266   N.2       1 RES1   0.0000
    22 C22     24.1942   5.5350  61.8606   C.2       1 RES1   0.0000
    23 C23     25.1632   3.7630  63.9615   C.3       1 RES1   0.0000
    24 O24     23.3752   4.6770  62.1766   O.2       1 RES1   0.0000
    25 H1      29.6232   5.2501  66.3735   H         1 RES1   0.0000
    26 H2      32.6239   8.8781  66.4991   H         1 RES1   0.0000
    27 H3      31.0119   6.9868  66.4946   H         1 RES1   0.0000
    28 H4      28.9676   8.7529  63.1555   H         1 RES1   0.0000
    29 H5      30.5880  10.6210  63.1395   H         1 RES1   0.0000
    30 H6      32.7661  11.6579  62.5779   H         1 RES1   0.0000
    31 H7      34.4007  11.3784  63.1618   H         1 RES1   0.0000
    32 H8      27.4683   3.8059  65.6987   H         1 RES1   0.0000
    33 H9      24.3604   8.1849  59.0829   H         1 RES1   0.0000
    34 H10     25.9243   8.7101  59.6902   H         1 RES1   0.0000
    35 H11     24.9019   3.7942  65.0182   H         1 RES1   0.0000
    36 H12     24.2589   3.6395  63.3674   H         1 RES1   0.0000
    37 H13     25.8351   2.9258  63.7783   H         1 RES1   0.0000
@<TRIPOS>BOND
     1     1     2    2
     2     2     3    2
     3     2     4    1
     4     2     5    1
     5     5     6    2
     6     5    10    1
     7     6     7    1
     8     7     8    2
     9     8     9    1
    10     8    11    1
    11     9    10    2
    12    11    12    1
    13    11    13    2
    14    12    15    1
    15    13    14    1
    16    14    15    2
    17    15    16    1
    18    16    17    2
    19    16    23    1
    20    17    18    1
    21    17    22    1
    22    18    19    1
    23    19    20    1
    24    19    21    2
    25    21    22    1
    26    22    24    2
    27    13    25    1
    28    10    26    1
    29     9    27    1
    30     7    28    1
    31     6    29    1
    32     4    30    1
    33     4    31    1
    34    14    32    1
    35    20    33    1
    36    20    34    1
    37    23    35    1
    38    23    36    1
    39    23    37    1
@<TRIPOS>SUBSTRUCTURE
     1 RES1        1 GROUP             0 ****  ****    0  
@<TRIPOS>MOLECULE
4D1X:A:ESJ1299
    28    30     1     0     0
SMALL
NO_CHARGES
****
Generated from the CSD

@<TRIPOS>ATOM
     1 O1      23.4587  10.2192  57.7363   O.3       1 RES1   0.0000
     2 C2      23.8947   9.6562  58.7653   C.2       1 RES1   0.0000
     3 O3      23.1987   9.1601  59.6773   O.2       1 RES1   0.0000
     4 C4      25.2857   9.5402  58.8663   C.3       1 RES1   0.0000
     5 N5      25.6817   8.2921  59.6403   N.pl3     1 RES1   0.0000
     6 C6      25.9057  10.7282  59.6113   C.3       1 RES1   0.0000
     7 S7      25.6827  10.1922  61.2822   S.3       1 RES1   0.0000
     8 C8      25.9347   8.5341  60.9322   C.2       1 RES1   0.0000
     9 C9      26.2677   7.5711  61.7922   C.2       1 RES1   0.0000
    10 N10     25.7057   6.3631  61.8082   N.pl3     1 RES1   0.0000
    11 C11     26.1817   5.5231  62.7502   C.2       1 RES1   0.0000
    12 C12     25.7967   4.2701  62.9882   C.2       1 RES1   0.0000
    13 C13     26.3727   3.5061  63.9942   C.2       1 RES1   0.0000
    14 C14     27.3757   4.0901  64.7522   C.2       1 RES1   0.0000
    15 O15     27.9777   3.3911  65.7462   O.3       1 RES1   0.0000
    16 C16     27.7537   5.3971  64.4792   C.2       1 RES1   0.0000
    17 C17     27.1567   6.0771  63.4972   C.2       1 RES1   0.0000
    18 S18     27.3927   7.6331  62.9462   S.3       1 RES1   0.0000
    19 H1      28.4086   2.5808  65.3670   H         1 RES1   0.0000
    20 H2      25.7113   9.4874  57.8653   H         1 RES1   0.0000
    21 H3      25.0085   3.8331  62.3768   H         1 RES1   0.0000
    22 H4      25.7474   7.3704  59.2203   H         1 RES1   0.0000
    23 H5      24.9730   6.0946  61.1591   H         1 RES1   0.0000
    24 H6      26.0479   2.4837  64.1813   H         1 RES1   0.0000
    25 H7      22.9065  11.0025  57.9963   H         1 RES1   0.0000
    26 H8      25.3713  11.6554  59.4095   H         1 RES1   0.0000
    27 H9      26.9588  10.8551  59.3646   H         1 RES1   0.0000
    28 H10     28.5392   5.8694  65.0673   H         1 RES1   0.0000
@<TRIPOS>BOND
     1     1     2    1
     2     2     3    2
     3     2     4    1
     4     4     5    1
     5     4     6    1
     6     5     8    1
     7     6     7    1
     8     7     8    1
     9     8     9    2
    10     9    10    1
    11     9    18    1
    12    10    11    1
    13    11    12    1
    14    11    17    2
    15    12    13    2
    16    13    14    1
    17    14    15    1
    18    14    16    2
    19    16    17    1
    20    17    18    1
    21    15    19    1
    22     4    20    1
    23    12    21    1
    24     5    22    1
    25    10    23    1
    26    13    24    1
    27     1    25    1
    28     6    26    1
    29     6    27    1
    30    16    28    1
@<TRIPOS>SUBSTRUCTURE
     1 RES1        1 GROUP             0 ****  ****    0  
@<TRIPOS>MOLECULE
4FKW:A:62K301
    49    51     1     0     0
SMALL
NO_CHARGES
****
Generated from the CSD

@<TRIPOS>ATOM
     1 N1      28.3865   6.6850  64.3895   N.2       1 RES1   0.0000
     2 S2      33.6294  10.8490  64.8055   S.o2      1 RES1   0.0000
     3 N3      29.4534   6.6950  65.0535   N.pl3     1 RES1   0.0000
     4 N4      33.1474  12.1070  63.9155   N.pl3     1 RES1   0.0000
     5 N5      26.7965   3.5390  64.6115   N.am      1 RES1   0.0000
     6 C6      25.8505   9.8800  59.3506   C.3       1 RES1   0.0000
     7 C7      24.7155  10.7990  61.3945   C.3       1 RES1   0.0000
     8 O8      22.6896   6.4600  60.6386   O.2       1 RES1   0.0000
     9 O9      28.6555   4.1740  65.7865   O.2       1 RES1   0.0000
    10 O10     34.0304  11.2880  66.1695   O.2       1 RES1   0.0000
    11 O11     34.7863  10.1880  64.1745   O.2       1 RES1   0.0000
    12 C12     31.3554   7.7470  65.9985   C.2       1 RES1   0.0000
    13 C13     30.4004   8.6020  63.9575   C.2       1 RES1   0.0000
    14 C14     32.3444   8.7480  65.9595   C.2       1 RES1   0.0000
    15 C15     31.3744   9.6010  63.9065   C.2       1 RES1   0.0000
    16 C16     24.1165   4.5130  62.2015   C.2       1 RES1   0.0000
    17 C17     24.7985   3.6900  63.1085   C.2       1 RES1   0.0000
    18 C18     25.7225   6.3050  62.6515   C.2       1 RES1   0.0000
    19 C19     23.5906   8.9690  60.0826   C.3       1 RES1   0.0000
    20 O20     24.3145   8.0140  60.9136   O.3       1 RES1   0.0000
    21 C21     23.7856   6.7810  61.0986   C.2       1 RES1   0.0000
    22 C22     30.3444   7.7070  65.0455   C.2       1 RES1   0.0000
    23 C23     24.5635   5.8320  62.0125   C.2       1 RES1   0.0000
    24 C24     32.3504   9.6660  64.9045   C.2       1 RES1   0.0000
    25 C25     27.7275   4.4170  65.0085   C.2       1 RES1   0.0000
    26 C26     27.5475   5.6290  64.3485   C.2       1 RES1   0.0000
    27 C27     25.9615   4.1560  63.7465   C.2       1 RES1   0.0000
    28 C28     26.4275   5.4540  63.5205   C.2       1 RES1   0.0000
    29 C29     24.4885  10.2150  60.0036   C.3       1 RES1   0.0000
    30 H1      31.3735  10.3255  63.0935   H         1 RES1   0.0000
    31 H2      22.6332   9.2190  60.5373   H         1 RES1   0.0000
    32 H3      23.4238   8.5574  59.0883   H         1 RES1   0.0000
    33 H4      26.0712   7.3215  62.4751   H         1 RES1   0.0000
    34 H5      24.4270   2.6883  63.3192   H         1 RES1   0.0000
    35 H6      23.2546   4.1366  61.6525   H         1 RES1   0.0000
    36 H7      29.6579   5.8880  65.6342   H         1 RES1   0.0000
    37 H8      33.0978   8.8070  66.7436   H         1 RES1   0.0000
    38 H9      23.9872  10.9638  59.3922   H         1 RES1   0.0000
    39 H10     32.8423  11.9641  62.9580   H         1 RES1   0.0000
    40 H11     33.1495  13.0407  64.3135   H         1 RES1   0.0000
    41 H12     29.6766   8.5132  63.1487   H         1 RES1   0.0000
    42 H13     31.3828   6.9945  66.7852   H         1 RES1   0.0000
    43 H14     26.7295   2.5714  64.9107   H         1 RES1   0.0000
    44 H15     25.3106  11.7074  61.3141   H         1 RES1   0.0000
    45 H16     23.7550  11.0335  61.8509   H         1 RES1   0.0000
    46 H17     25.2429  10.0729  62.0114   H         1 RES1   0.0000
    47 H18     26.3789   9.1531  59.9657   H         1 RES1   0.0000
    48 H19     25.6846   9.4635  58.3582   H         1 RES1   0.0000
    49 H20     26.4466  10.7876  59.2683   H         1 RES1   0.0000
@<TRIPOS>BOND
     1     1     3    1
     2     1    26    2
     3     2     4    1
     4     2    10    2
     5     2    11    2
     6     2    24    1
     7     3    22    1
     8     5    25   am
     9     5    27    1
    10     6    29    1
    11     7    29    1
    12     8    21    2
    13     9    25    2
    14    12    14    2
    15    12    22    1
    16    13    15    1
    17    13    22    2
    18    14    24    1
    19    15    24    2
    20    16    17    1
    21    16    23    2
    22    17    27    2
    23    18    23    1
    24    18    28    2
    25    19    20    1
    26    19    29    1
    27    20    21    1
    28    21    23    1
    29    25    26    1
    30    26    28    1
    31    27    28    1
    32    15    30    1
    33    19    31    1
    34    19    32    1
    35    18    33    1
    36    17    34    1
    37    16    35    1
    38     3    36    1
    39    14    37    1
    40    29    38    1
    41     4    39    1
    42     4    40    1
    43    13    41    1
    44    12    42    1
    45     5    43    1
    46     7    44    1
    47     7    45    1
    48     7    46    1
    49     6    47    1
    50     6    48    1
    51     6    49    1
@<TRIPOS>SUBSTRUCTURE
     1 RES1        1 GROUP             0 ****  ****    0  
@<TRIPOS>MOLECULE
1URW:A:I1P1300
    56    59     1     0     0
SMALL
NO_CHARGES
****
Generated from the CSD

@<TRIPOS>ATOM
     1 C1      31.8224   7.2800  66.7176   C.2       1 RES1   0.0000
     2 C2      22.9013   5.4970  60.8216   C.2       1 RES1   0.0000
     3 C3      23.6443   6.6670  60.7026   C.2       1 RES1   0.0000
     4 C4      26.4724   5.9710  62.9006   C.2       1 RES1   0.0000
     5 C5      23.3013   4.4190  61.6026   C.2       1 RES1   0.0000
     6 C6      24.9663   6.7450  61.5346   C.2       1 RES1   0.0000
     7 N7      24.4263   4.4540  62.3066   N.2       1 RES1   0.0000
     8 C8      26.9864   3.7800  63.9896   C.2       1 RES1   0.0000
     9 C9      27.2544   5.1860  63.8046   C.2       1 RES1   0.0000
    10 C10     26.7744   7.3170  62.4296   C.2       1 RES1   0.0000
    11 C11     30.7984   6.9300  65.7916   C.2       1 RES1   0.0000
    12 C12     28.9964   5.0070  65.3576   C.2       1 RES1   0.0000
    13 C13     27.8164   3.0800  64.9086   C.2       1 RES1   0.0000
    14 N14     28.2704   5.7570  64.5116   N.2       1 RES1   0.0000
    15 C15     30.5614   7.7790  64.6576   C.2       1 RES1   0.0000
    16 C16     31.3334   8.9330  64.4486   C.2       1 RES1   0.0000
    17 C17     32.3504   9.2490  65.3736   C.2       1 RES1   0.0000
    18 N18     25.2254   5.6300  62.3336   N.pl3     1 RES1   0.0000
    19 N19     25.8034   7.8250  61.5476   N.2       1 RES1   0.0000
    20 N20     28.8044   3.7020  65.5766   N.2       1 RES1   0.0000
    21 N21     30.0544   5.7150  66.0366   N.pl3     1 RES1   0.0000
    22 C22     32.6035   8.4410  66.5126   C.2       1 RES1   0.0000
    23 S23     33.3415  10.6520  65.0976   S.o2      1 RES1   0.0000
    24 N24     32.3775  11.8521  64.2876   N.pl3     1 RES1   0.0000
    25 C25     31.4504  12.5321  65.2196   C.3       1 RES1   0.0000
    26 C26     31.1004  13.9391  64.7166   C.3       1 RES1   0.0000
    27 C27     32.3484  14.8611  64.5796   C.3       1 RES1   0.0000
    28 N28     32.1124  16.3421  64.4126   N.3       1 RES1   0.0000
    29 C29     31.7744  17.0591  65.6726   C.3       1 RES1   0.0000
    30 C30     31.1034  16.6531  63.3426   C.3       1 RES1   0.0000
    31 O31     34.5475  10.2550  64.1466   O.2       1 RES1   0.0000
    32 O32     33.8925  11.2241  66.4656   O.2       1 RES1   0.0000
    33 H1      22.6784   3.5264  61.6378   H         1 RES1   0.0000
    34 H2      31.1501   9.5733  63.5870   H         1 RES1   0.0000
    35 H3      33.3877   8.7110  67.2184   H         1 RES1   0.0000
    36 H4      30.4057  14.3967  65.4194   H         1 RES1   0.0000
    37 H5      30.6245  13.8511  63.7410   H         1 RES1   0.0000
    38 H6      23.3218   7.4870  60.0626   H         1 RES1   0.0000
    39 H7      30.1507  16.1907  63.5966   H         1 RES1   0.0000
    40 H8      30.9747  17.7319  63.2675   H         1 RES1   0.0000
    41 H9      31.4538  16.2621  62.3885   H         1 RES1   0.0000
    42 H10     30.3458   5.2488  66.8898   H         1 RES1   0.0000
    43 H11     26.1849   3.2776  63.4500   H         1 RES1   0.0000
    44 H12     32.4428  12.0607  63.2964   H         1 RES1   0.0000
    45 H13     27.6614   7.8728  62.7300   H         1 RES1   0.0000
    46 H14     31.9225  12.6106  66.1978   H         1 RES1   0.0000
    47 H15     30.5363  11.9461  65.3037   H         1 RES1   0.0000
    48 H16     32.9097  14.5213  63.7105   H         1 RES1   0.0000
    49 H17     32.9516  14.7271  65.4764   H         1 RES1   0.0000
    50 H18     27.6482   2.0170  65.0750   H         1 RES1   0.0000
    51 H19     21.9613   5.4221  60.2768   H         1 RES1   0.0000
    52 H20     32.0047   6.6507  67.5875   H         1 RES1   0.0000
    53 H21     32.5909  16.9468  66.3844   H         1 RES1   0.0000
    54 H22     31.6217  18.1160  65.4591   H         1 RES1   0.0000
    55 H23     30.8633  16.6390  66.0961   H         1 RES1   0.0000
    56 H24     29.7729   7.5244  63.9509   H         1 RES1   0.0000
@<TRIPOS>BOND
     1     1    11    2
     2     1    22    1
     3     2     3    2
     4     2     5    1
     5     3     6    1
     6     4     9    1
     7     4    10    2
     8     4    18    1
     9     5     7    2
    10     6    18    1
    11     6    19    2
    12     7    18    1
    13     8     9    2
    14     8    13    1
    15     9    14    1
    16    10    19    1
    17    11    15    1
    18    11    21    1
    19    12    14    2
    20    12    20    1
    21    12    21    1
    22    13    20    2
    23    15    16    2
    24    16    17    1
    25    17    22    2
    26    17    23    1
    27    23    24    1
    28    23    31    2
    29    23    32    2
    30    24    25    1
    31    25    26    1
    32    26    27    1
    33    27    28    1
    34    28    29    1
    35    28    30    1
    36     5    33    1
    37    16    34    1
    38    22    35    1
    39    26    36    1
    40    26    37    1
    41     3    38    1
    42    30    39    1
    43    30    40    1
    44    30    41    1
    45    21    42    1
    46     8    43    1
    47    24    44    1
    48    10    45    1
    49    25    46    1
    50    25    47    1
    51    27    48    1
    52    27    49    1
    53    13    50    1
    54     2    51    1
    55     1    52    1
    56    29    53    1
    57    29    54    1
    58    29    55    1
    59    15    56    1
@<TRIPOS>SUBSTRUCTURE
     1 RES1        1 GROUP             0 ****  ****    0  
@<TRIPOS>MOLECULE
1R78:A:FMD299
    48    50     1     0     0
SMALL
NO_CHARGES
****
Generated from the CSD

@<TRIPOS>ATOM
     1 F1      23.4193   5.6489  60.9040   F         1 RES1   0.0000
     2 C2      24.2223   5.0769  61.8200   C.2       1 RES1   0.0000
     3 C3      25.3763   5.7829  62.1950   C.2       1 RES1   0.0000
     4 C4      25.6663   7.0269  61.6010   C.1       1 RES1   0.0000
     5 C5      25.9283   8.0859  61.1110   C.1       1 RES1   0.0000
     6 C6      26.2923   9.3209  60.5400   C.3       1 RES1   0.0000
     7 O7      26.0793   9.2429  59.1280   O.3       1 RES1   0.0000
     8 C8      25.6653  10.5608  61.2290   C.3       1 RES1   0.0000
     9 N9      25.2753  10.3108  62.6220   N.3       1 RES1   0.0000
    10 C10     26.7473  11.6558  61.1920   C.3       1 RES1   0.0000
    11 O11     26.1943  12.9798  61.2050   O.3       1 RES1   0.0000
    12 C12     27.7104  11.5238  59.9910   C.3       1 RES1   0.0000
    13 C13     26.2263   5.1349  63.2070   C.2       1 RES1   0.0000
    14 C14     25.8443   3.8659  63.7429   C.2       1 RES1   0.0000
    15 N15     26.8273   3.5169  64.6469   N.am      1 RES1   0.0000
    16 C16     27.8444   4.4769  64.7889   C.2       1 RES1   0.0000
    17 O17     28.7894   4.3569  65.5429   O.2       1 RES1   0.0000
    18 C18     24.6943   3.2099  63.3270   C.2       1 RES1   0.0000
    19 C19     23.8793   3.8289  62.3590   C.2       1 RES1   0.0000
    20 C20     27.3824   5.5169  63.8069   C.2       1 RES1   0.0000
    21 C21     28.1224   6.7639  63.5499   C.2       1 RES1   0.0000
    22 C22     29.3914   7.2989  64.0399   C.2       1 RES1   0.0000
    23 C23     30.0264   8.4809  63.7129   C.2       1 RES1   0.0000
    24 O24     29.5774   9.4228  62.8070   O.3       1 RES1   0.0000
    25 C25     30.0374  10.7798  62.9180   C.3       1 RES1   0.0000
    26 C26     31.2554   8.4779  64.4989   C.2       1 RES1   0.0000
    27 C27     31.2704   7.3419  65.2439   C.2       1 RES1   0.0000
    28 N28     30.1464   6.6289  64.9809   N.pl3     1 RES1   0.0000
    29 H1      31.1216  10.8048  62.8189   H         1 RES1   0.0000
    30 H2      29.5869  11.3814  62.1299   H         1 RES1   0.0000
    31 H3      29.7523  11.1814  63.8892   H         1 RES1   0.0000
    32 H4      32.0242   9.2492  64.4900   H         1 RES1   0.0000
    33 H5      32.0566   7.0509  65.9390   H         1 RES1   0.0000
    34 H6      27.3446  11.5481  62.0962   H         1 RES1   0.0000
    35 H7      27.6186   7.4263  62.8476   H         1 RES1   0.0000
    36 H8      27.3687   9.4114  60.6780   H         1 RES1   0.0000
    37 H9      25.6602  13.1073  62.0323   H         1 RES1   0.0000
    38 H10     26.0933  10.0418  63.1593   H         1 RES1   0.0000
    39 H11     24.8733  11.1547  63.0175   H         1 RES1   0.0000
    40 H12     24.7958  10.8903  60.6621   H         1 RES1   0.0000
    41 H13     25.1213   9.0536  58.9477   H         1 RES1   0.0000
    42 H14     27.1446  11.5907  59.0629   H         1 RES1   0.0000
    43 H15     28.4464  12.3257  60.0261   H         1 RES1   0.0000
    44 H16     28.2190  10.5620  60.0376   H         1 RES1   0.0000
    45 H17     29.8997   5.7422  65.4089   H         1 RES1   0.0000
    46 H18     26.8167   2.6435  65.1639   H         1 RES1   0.0000
    47 H19     22.9702   3.3312  62.0247   H         1 RES1   0.0000
    48 H20     24.4278   2.2381  63.7398   H         1 RES1   0.0000
@<TRIPOS>BOND
     1     1     2    1
     2     2     3    2
     3     2    19    1
     4     3     4    1
     5     3    13    1
     6     4     5    3
     7     5     6    1
     8     6     7    1
     9     6     8    1
    10     8     9    1
    11     8    10    1
    12    10    11    1
    13    10    12    1
    14    13    14    2
    15    13    20    1
    16    14    15    1
    17    14    18    1
    18    15    16   am
    19    16    17    2
    20    16    20    1
    21    18    19    2
    22    20    21    2
    23    21    22    1
    24    22    23    2
    25    22    28    1
    26    23    24    1
    27    23    26    1
    28    24    25    1
    29    26    27    2
    30    27    28    1
    31    25    29    1
    32    25    30    1
    33    25    31    1
    34    26    32    1
    35    27    33    1
    36    10    34    1
    37    21    35    1
    38     6    36    1
    39    11    37    1
    40     9    38    1
    41     9    39    1
    42     8    40    1
    43     7    41    1
    44    12    42    1
    45    12    43    1
    46    12    44    1
    47    28    45    1
    48    15    46    1
    49    19    47    1
    50    18    48    1
@<TRIPOS>SUBSTRUCTURE
     1 RES1        1 GROUP             0 ****  ****    0  
@<TRIPOS>MOLECULE
3R28:A:XA0782
    33    34     1     0     0
SMALL
USER_CHARGES
****
Generated from the CSD

@<TRIPOS>ATOM
     1 N1      29.5258   6.4858  65.1756   N.pl3     1 RES1   0.0000
     2 N2      26.9679   3.2849  64.5906   N.am      1 RES1   0.0000
     3 N3      24.5019   7.4347  63.2216   N.pl3     1 RES1   1.0000
     4 C4      26.0509   5.9248  64.1356   C.2       1 RES1   0.0000
     5 C5      27.3579   5.6458  64.6546   C.2       1 RES1   0.0000
     6 C6      28.3309   6.7088  64.7156   C.2       1 RES1   0.0000
     7 C7      27.9619   8.0127  64.2736   C.2       1 RES1   0.0000
     8 C8      26.6789   8.2927  63.7706   C.2       1 RES1   0.0000
     9 C9      25.6909   7.2388  63.6846   C.2       1 RES1   0.0000
    10 C10     27.6559   4.3658  65.0866   C.2       1 RES1   0.0000
    11 C11     30.7308   7.2618  64.7566   C.3       1 RES1   0.0000
    12 C12     30.9938   8.3807  65.7415   C.2       1 RES1   0.0000
    13 C13     31.2988   9.6877  65.2666   C.2       1 RES1   0.0000
    14 C14     31.5388  10.7436  66.1905   C.2       1 RES1   0.0000
    15 C15     31.4738  10.4926  67.5885   C.2       1 RES1   0.0000
    16 C16     31.1648   9.1877  68.0595   C.2       1 RES1   0.0000
    17 C17     30.9268   8.1337  67.1385   C.2       1 RES1   0.0000
    18 O18     28.5149   4.1849  65.9285   O.2       1 RES1   0.0000
    19 O19     23.4729   6.7618  63.7006   O.3       1 RES1  -1.0000
    20 O20     24.2899   8.2767  62.2236   O.2       1 RES1   0.0000
    21 Cl21    26.3649   9.9187  63.2816   Cl        1 RES1   0.0000
    22 F22     31.0968   8.9557  69.3485   F         1 RES1   0.0000
    23 F23     31.8178  11.9556  65.7465   F         1 RES1   0.0000
    24 F24     31.6978  11.4746  68.4555   F         1 RES1   0.0000
    25 H1      25.3160   5.1229  64.0825   H         1 RES1   0.0000
    26 H2      30.5616   7.6844  63.7673   H         1 RES1   0.0000
    27 H3      31.5940   6.5986  64.7252   H         1 RES1   0.0000
    28 H4      31.3485   9.8798  64.1958   H         1 RES1   0.0000
    29 H5      30.6926   7.1348  67.5036   H         1 RES1   0.0000
    30 H6      29.6465   5.7434  65.8571   H         1 RES1   0.0000
    31 H7      27.1926   2.3490  64.9127   H         1 RES1   0.0000
    32 H8      26.2349   3.4223  63.9021   H         1 RES1   0.0000
    33 H9      28.6953   8.8159  64.3270   H         1 RES1   0.0000
@<TRIPOS>BOND
     1     1     6    1
     2     1    11    1
     3     2    10   am
     4     3     9    1
     5     3    19    1
     6     3    20    2
     7     4     5    2
     8     4     9    1
     9     5     6    1
    10     5    10    1
    11     6     7    2
    12     7     8    1
    13     8     9    2
    14     8    21    1
    15    10    18    2
    16    11    12    1
    17    12    13    2
    18    12    17    1
    19    13    14    1
    20    14    15    2
    21    14    23    1
    22    15    16    1
    23    15    24    1
    24    16    17    2
    25    16    22    1
    26     4    25    1
    27    11    26    1
    28    11    27    1
    29    13    28    1
    30    17    29    1
    31     1    30    1
    32     2    31    1
    33     2    32    1
    34     7    33    1
@<TRIPOS>SUBSTRUCTURE
     1 RES1        1 GROUP             0 ****  ****    0  
@<TRIPOS>MOLECULE
3QQJ:A:X11300
    24    25     1     0     0
SMALL
NO_CHARGES
****
Generated from the CSD

@<TRIPOS>ATOM
     1 N1      28.3394   7.9852  63.9367   N.2       1 RES1   0.0000
     2 C2      29.2194   8.9772  64.2207   C.2       1 RES1   0.0000
     3 N3      30.2714   8.7382  65.0398   N.2       1 RES1   0.0000
     4 C4      30.4404   7.5081  65.5738   C.2       1 RES1   0.0000
     5 N5      29.5644   6.5251  65.2888   N.2       1 RES1   0.0000
     6 C6      28.5144   6.7561  64.4738   C.2       1 RES1   0.0000
     7 N7      29.0364  10.2542  63.6607   N.pl3     1 RES1   0.0000
     8 N8      31.5183   7.2431  66.4168   N.pl3     1 RES1   0.0000
     9 C9      27.5584   5.6571  64.1667   C.2       1 RES1   0.0000
    10 C10     27.7514   4.3521  64.7318   C.2       1 RES1   0.0000
    11 C11     26.8414   3.3101  64.4238   C.2       1 RES1   0.0000
    12 C12     25.7355   3.5571  63.5577   C.2       1 RES1   0.0000
    13 C13     25.5345   4.8581  62.9977   C.2       1 RES1   0.0000
    14 C14     26.4474   5.9011  63.3017   C.2       1 RES1   0.0000
    15 O15     28.8104   4.1041  65.5698   O.3       1 RES1   0.0000
    16 H1      28.7501   4.6973  66.3638   H         1 RES1   0.0000
    17 H2      26.3007   6.8918  62.8740   H         1 RES1   0.0000
    18 H3      24.6858   5.0469  62.3419   H         1 RES1   0.0000
    19 H4      25.0412   2.7520  63.3217   H         1 RES1   0.0000
    20 H5      26.9870   2.3184  64.8495   H         1 RES1   0.0000
    21 H6      31.6368   6.3162  66.8130   H         1 RES1   0.0000
    22 H7      32.1847   7.9771  66.6345   H         1 RES1   0.0000
    23 H8      29.6928  10.9993  63.8708   H         1 RES1   0.0000
    24 H9      28.2479  10.4307  63.0464   H         1 RES1   0.0000
@<TRIPOS>BOND
     1     1     2    2
     2     1     6    1
     3     2     3    1
     4     2     7    1
     5     3     4    2
     6     4     5    1
     7     4     8    1
     8     5     6    2
     9     6     9    1
    10     9    10    2
    11     9    14    1
    12    10    11    1
    13    10    15    1
    14    11    12    2
    15    12    13    1
    16    13    14    2
    17    15    16    1
    18    14    17    1
    19    13    18    1
    20    12    19    1
    21    11    20    1
    22     8    21    1
    23     8    22    1
    24     7    23    1
    25     7    24    1
@<TRIPOS>SUBSTRUCTURE
     1 RES1        1 GROUP             0 ****  ****    0  
@<TRIPOS>MOLECULE
4EZ3:A:0S0301
    30    31     1     0     0
SMALL
NO_CHARGES
****
Generated from the CSD

@<TRIPOS>ATOM
     1 O1      28.3516   4.0721  65.6187   O.2       1 RES1   0.0000
     2 C2      27.5086   4.3441  64.7657   C.2       1 RES1   0.0000
     3 N3      26.6706   3.3871  64.3867   N.am      1 RES1   0.0000
     4 C4      25.7006   3.6041  63.4357   C.2       1 RES1   0.0000
     5 O5      24.8676   2.5951  63.0917   O.2       1 RES1   0.0000
     6 C6      25.5706   4.8481  62.8207   C.2       1 RES1   0.0000
     7 C7      26.4376   5.8812  63.1707   C.2       1 RES1   0.0000
     8 C8      27.4276   5.6362  64.1597   C.2       1 RES1   0.0000
     9 N9      28.3106   6.7362  64.4797   N.2       1 RES1   0.0000
    10 N10     29.2197   6.6992  65.2987   N.pl3     1 RES1   0.0000
    11 C11     30.2687   7.7192  65.1807   C.2       1 RES1   0.0000
    12 C12     30.1747   8.6673  64.1347   C.2       1 RES1   0.0000
    13 C13     31.1167   9.6183  64.0247   C.2       1 RES1   0.0000
    14 C14     32.1947   9.6393  64.9567   C.2       1 RES1   0.0000
    15 S15     33.4517  10.8733  64.8177   S.o2      1 RES1   0.0000
    16 O16     33.0457  11.9994  64.0197   O.2       1 RES1   0.0000
    17 N17     33.9108  11.3383  66.2837   N.pl3     1 RES1   0.0000
    18 O18     34.5418  10.3053  63.9757   O.2       1 RES1   0.0000
    19 C19     32.2957   8.6963  65.9857   C.2       1 RES1   0.0000
    20 C20     31.3397   7.7362  66.1087   C.2       1 RES1   0.0000
    21 H1      29.2469   5.9937  66.0279   H         1 RES1   0.0000
    22 H2      26.7477   2.4683  64.8110   H         1 RES1   0.0000
    23 H3      33.1323   8.7307  66.6820   H         1 RES1   0.0000
    24 H4      31.0575  10.3640  63.2333   H         1 RES1   0.0000
    25 H5      29.3481   8.6264  63.4269   H         1 RES1   0.0000
    26 H6      34.6303  12.0464  66.3894   H         1 RES1   0.0000
    27 H7      33.4816  10.9243  67.1051   H         1 RES1   0.0000
    28 H8      24.7969   5.0115  62.0720   H         1 RES1   0.0000
    29 H9      26.3579   6.8577  62.6953   H         1 RES1   0.0000
    30 H10     31.3963   6.9952  66.9047   H         1 RES1   0.0000
@<TRIPOS>BOND
     1     1     2    2
     2     2     3   am
     3     2     8    1
     4     3     4   am
     5     4     5    2
     6     4     6    1
     7     6     7    2
     8     7     8    1
     9     8     9    2
    10     9    10    1
    11    10    11    1
    12    11    12    2
    13    11    20    1
    14    12    13    1
    15    13    14    2
    16    14    15    1
    17    14    19    1
    18    15    16    2
    19    15    17    1
    20    15    18    2
    21    19    20    2
    22    10    21    1
    23     3    22    1
    24    19    23    1
    25    13    24    1
    26    12    25    1
    27    17    26    1
    28    17    27    1
    29     6    28    1
    30     7    29    1
    31    20    30    1
@<TRIPOS>SUBSTRUCTURE
     1 RES1        1 GROUP             0 ****  ****    0  
@<TRIPOS>MOLECULE
2W06:A:FRV1300
    47    50     1     0     0
SMALL
NO_CHARGES
****
Generated from the CSD

@<TRIPOS>ATOM
     1 C1      31.6514   7.4698  66.5834   C.2       1 RES1   0.0000
     2 N2      25.2873   6.8188  62.0665   N.pl3     1 RES1   0.0000
     3 C3      24.0723   5.9469  61.9155   C.3       1 RES1   0.0000
     4 C4      25.3633   8.0398  61.3845   C.2       1 RES1   0.0000
     5 C5      24.3103   8.6368  60.4655   C.3       1 RES1   0.0000
     6 C6      23.4313   5.4479  63.2185   C.3       1 RES1   0.0000
     7 C7      26.6943   4.3789  63.8094   C.2       1 RES1   0.0000
     8 C8      27.0943   5.7189  63.6764   C.2       1 RES1   0.0000
     9 C9      26.4953   6.7138  62.7675   C.2       1 RES1   0.0000
    10 C10     27.1963   7.8778  62.4725   C.2       1 RES1   0.0000
    11 C11     27.4034   3.5499  64.7204   C.2       1 RES1   0.0000
    12 C12     30.6144   7.0738  65.7214   C.2       1 RES1   0.0000
    13 C13     28.8384   5.3589  65.3124   C.2       1 RES1   0.0000
    14 N14     28.1474   6.1439  64.4314   N.2       1 RES1   0.0000
    15 C15     31.3924  12.7687  64.7634   C.3       1 RES1   0.0000
    16 C16     30.3594   7.8638  64.5444   C.2       1 RES1   0.0000
    17 C17     31.1454   9.0008  64.2684   C.2       1 RES1   0.0000
    18 C18     32.1944   9.3688  65.1574   C.2       1 RES1   0.0000
    19 O19     33.6434  11.3207  66.0734   O.2       1 RES1   0.0000
    20 S20     33.1704  10.7528  64.8324   S.o2      1 RES1   0.0000
    21 O21     34.2954  10.3298  64.0234   O.2       1 RES1   0.0000
    22 N22     32.2494  11.9677  63.9244   N.pl3     1 RES1   0.0000
    23 C23     32.4374   8.6068  66.3074   C.2       1 RES1   0.0000
    24 N24     29.8614   5.9199  66.0094   N.pl3     1 RES1   0.0000
    25 N25     28.4384   4.0709  65.4254   N.2       1 RES1   0.0000
    26 N26     26.4813   8.6468  61.6345   N.2       1 RES1   0.0000
    27 C27     23.8073   4.4799  62.0915   C.3       1 RES1   0.0000
    28 H1      24.6398   3.7905  62.2240   H         1 RES1   0.0000
    29 H2      23.0249   3.9964  61.5084   H         1 RES1   0.0000
    30 H3      23.3332   6.4072  61.2614   H         1 RES1   0.0000
    31 H4      30.1205   5.4357  66.8630   H         1 RES1   0.0000
    32 H5      33.2358   8.8937  66.9901   H         1 RES1   0.0000
    33 H6      32.3186  12.0866  62.9188   H         1 RES1   0.0000
    34 H7      30.9507   9.5960  63.3775   H         1 RES1   0.0000
    35 H8      31.8514   6.8872  67.4815   H         1 RES1   0.0000
    36 H9      29.5563   7.5816  63.8652   H         1 RES1   0.0000
    37 H10     23.3847   8.7825  61.0204   H         1 RES1   0.0000
    38 H11     24.6609   9.5955  60.0863   H         1 RES1   0.0000
    39 H12     24.1308   7.9602  59.6313   H         1 RES1   0.0000
    40 H13     31.9959  13.2950  65.5014   H         1 RES1   0.0000
    41 H14     30.8569  13.4918  64.1500   H         1 RES1   0.0000
    42 H15     30.6773  12.1241  65.2723   H         1 RES1   0.0000
    43 H16     27.1186   2.5069  64.8511   H         1 RES1   0.0000
    44 H17     28.1810   8.1293  62.8636   H         1 RES1   0.0000
    45 H18     25.8614   3.9850  63.2288   H         1 RES1   0.0000
    46 H19     22.3849   5.6614  63.4317   H         1 RES1   0.0000
    47 H20     23.9998   5.4555  64.1473   H         1 RES1   0.0000
@<TRIPOS>BOND
     1     1    12    2
     2     1    23    1
     3     2     3    1
     4     2     4    1
     5     2     9    1
     6     3     6    1
     7     3    27    1
     8     4     5    1
     9     4    26    2
    10     6    27    1
    11     7     8    2
    12     7    11    1
    13     8     9    1
    14     8    14    1
    15     9    10    2
    16    10    26    1
    17    11    25    2
    18    12    16    1
    19    12    24    1
    20    13    14    2
    21    13    24    1
    22    13    25    1
    23    15    22    1
    24    16    17    2
    25    17    18    1
    26    18    20    1
    27    18    23    2
    28    19    20    2
    29    20    21    2
    30    20    22    1
    31    27    28    1
    32    27    29    1
    33     3    30    1
    34    24    31    1
    35    23    32    1
    36    22    33    1
    37    17    34    1
    38     1    35    1
    39    16    36    1
    40     5    37    1
    41     5    38    1
    42     5    39    1
    43    15    40    1
    44    15    41    1
    45    15    42    1
    46    11    43    1
    47    10    44    1
    48     7    45    1
    49     6    46    1
    50     6    47    1
@<TRIPOS>SUBSTRUCTURE
     1 RES1        1 GROUP             0 ****  ****    0  
@<TRIPOS>MOLECULE
3QQH:A:X0A303
    34    36     1     0     0
SMALL
NO_CHARGES
****
Generated from the CSD

@<TRIPOS>ATOM
     1 N1      29.7709   6.2258  65.1835   N.2       1 RES1   0.0000
     2 N2      30.5639   8.4748  64.9415   N.2       1 RES1   0.0000
     3 N3      28.4729   7.8198  63.9445   N.2       1 RES1   0.0000
     4 N4      31.6829   6.9118  66.0655   N.pl3     1 RES1   0.0000
     5 N5      29.3419   9.9537  63.7895   N.pl3     1 RES1   0.0000
     6 C6      25.6619   4.9059  63.0435   C.2       1 RES1   0.0000
     7 C7      25.7749   3.6049  63.5955   C.2       1 RES1   0.0000
     8 C8      26.8659   3.2849  64.4495   C.2       1 RES1   0.0000
     9 C9      27.8519   4.2679  64.7555   C.2       1 RES1   0.0000
    10 C10     27.7439   5.6019  64.1935   C.2       1 RES1   0.0000
    11 C11     26.6349   5.8978  63.3365   C.2       1 RES1   0.0000
    12 C12     28.6889   6.5808  64.4535   C.2       1 RES1   0.0000
    13 C13     30.6589   7.2108  65.3885   C.2       1 RES1   0.0000
    14 C14     29.4499   8.7268  64.2245   C.2       1 RES1   0.0000
    15 C15     28.4409  10.4427  62.9885   C.2       1 RES1   0.0000
    16 C16     27.0389  10.1717  63.1425   C.2       1 RES1   0.0000
    17 C17     26.0939  10.7427  62.2445   C.2       1 RES1   0.0000
    18 C18     26.5359  11.5877  61.1945   C.2       1 RES1   0.0000
    19 C19     27.9209  11.8617  61.0385   C.2       1 RES1   0.0000
    20 C20     28.8669  11.2917  61.9305   C.2       1 RES1   0.0000
    21 O21     28.8859   3.9299  65.5725   O.3       1 RES1   0.0000
    22 Cl22    24.3399   5.2829  62.0105   Cl        1 RES1   0.0000
    23 H1      25.0250   2.8495  63.3651   H         1 RES1   0.0000
    24 H2      26.9486   2.2845  64.8716   H         1 RES1   0.0000
    25 H3      29.9269  11.5064  61.8034   H         1 RES1   0.0000
    26 H4      29.3969   3.1812  65.1672   H         1 RES1   0.0000
    27 H5      32.3901   7.6152  66.2536   H         1 RES1   0.0000
    28 H6      31.7984   5.9682  66.4212   H         1 RES1   0.0000
    29 H7      30.0477  10.6057  64.1166   H         1 RES1   0.0000
    30 H8      26.5370   6.8931  62.9055   H         1 RES1   0.0000
    31 H9      28.2582  12.5111  60.2320   H         1 RES1   0.0000
    32 H10     26.6973   9.5262  63.9503   H         1 RES1   0.0000
    33 H11     25.0323  10.5310  62.3634   H         1 RES1   0.0000
    34 H12     25.8134  12.0264  60.5079   H         1 RES1   0.0000
@<TRIPOS>BOND
     1     1    12    2
     2     1    13    1
     3     2    13    2
     4     2    14    1
     5     3    12    1
     6     3    14    2
     7     4    13    1
     8     5    14    1
     9     5    15    1
    10     6     7    2
    11     6    11    1
    12     6    22    1
    13     7     8    1
    14     8     9    2
    15     9    10    1
    16     9    21    1
    17    10    11    2
    18    10    12    1
    19    15    16    2
    20    15    20    1
    21    16    17    1
    22    17    18    2
    23    18    19    1
    24    19    20    2
    25     7    23    1
    26     8    24    1
    27    20    25    1
    28    21    26    1
    29     4    27    1
    30     4    28    1
    31     5    29    1
    32    11    30    1
    33    19    31    1
    34    16    32    1
    35    17    33    1
    36    18    34    1
@<TRIPOS>SUBSTRUCTURE
     1 RES1        1 GROUP             0 ****  ****    0  
@<TRIPOS>MOLECULE
2BTS:A:U321299
    34    35     1     0     0
SMALL
NO_CHARGES
****
Generated from the CSD

@<TRIPOS>ATOM
     1 O1      33.2427  11.6993  65.9082   O.2       1 RES1   0.0000
     2 O2      34.0877  10.4692  63.8802   O.2       1 RES1   0.0000
     3 C3      27.2625   3.7471  65.0202   C.2       1 RES1   0.0000
     4 C4      26.6185   4.6641  64.2772   C.2       1 RES1   0.0000
     5 C5      25.3275   4.2811  63.5492   C.3       1 RES1   0.0000
     6 C6      24.2905   5.3801  63.7442   C.3       1 RES1   0.0000
     7 C7      25.4275   3.8971  62.0832   C.3       1 RES1   0.0000
     8 S8      27.2805   6.2131  64.3262   S.3       1 RES1   0.0000
     9 C9      28.5066   5.5571  65.4552   C.2       1 RES1   0.0000
    10 N10     28.2996   4.1391  65.6412   N.2       1 RES1   0.0000
    11 N11     31.9636  11.9683  63.6662   N.pl3     1 RES1   0.0000
    12 C12     30.7836   9.3352  64.2172   C.2       1 RES1   0.0000
    13 C13     31.9226   9.6742  64.9502   C.2       1 RES1   0.0000
    14 N14     29.7166   6.2271  65.9872   N.pl3     1 RES1   0.0000
    15 C15     32.2886   8.8582  66.0202   C.2       1 RES1   0.0000
    16 C16     31.5436   7.7112  66.3102   C.2       1 RES1   0.0000
    17 C17     30.3876   7.3592  65.5782   C.2       1 RES1   0.0000
    18 C18     30.0236   8.1872  64.5152   C.2       1 RES1   0.0000
    19 S19     32.7966  10.9962  64.5912   S.o2      1 RES1   0.0000
    20 H1      26.0807   3.0321  61.9783   H         1 RES1   0.0000
    21 H2      24.4366   3.6519  61.7038   H         1 RES1   0.0000
    22 H3      25.8369   4.7320  61.5164   H         1 RES1   0.0000
    23 H4      24.6725   6.3158  63.3386   H         1 RES1   0.0000
    24 H5      23.3718   5.1083  63.2265   H         1 RES1   0.0000
    25 H6      24.0860   5.5018  64.8069   H         1 RES1   0.0000
    26 H7      26.9123   2.7181  65.0866   H         1 RES1   0.0000
    27 H8      29.1487   7.9448  63.9138   H         1 RES1   0.0000
    28 H9      31.8651   7.0676  67.1277   H         1 RES1   0.0000
    29 H10     33.1541   9.1142  66.6295   H         1 RES1   0.0000
    30 H11     30.1238   5.7708  66.7973   H         1 RES1   0.0000
    31 H12     24.9388   3.4043  64.0651   H         1 RES1   0.0000
    32 H13     30.4743   9.9758  63.3926   H         1 RES1   0.0000
    33 H14     31.6089  11.6397  62.7738   H         1 RES1   0.0000
    34 H15     31.7830  12.9216  63.9642   H         1 RES1   0.0000
@<TRIPOS>BOND
     1     1    19    2
     2     2    19    2
     3     3     4    2
     4     3    10    1
     5     4     5    1
     6     4     8    1
     7     5     6    1
     8     5     7    1
     9     8     9    1
    10     9    10    2
    11     9    14    1
    12    11    19    1
    13    12    13    2
    14    12    18    1
    15    13    15    1
    16    13    19    1
    17    14    17    1
    18    15    16    2
    19    16    17    1
    20    17    18    2
    21     7    20    1
    22     7    21    1
    23     7    22    1
    24     6    23    1
    25     6    24    1
    26     6    25    1
    27     3    26    1
    28    18    27    1
    29    16    28    1
    30    15    29    1
    31    14    30    1
    32     5    31    1
    33    12    32    1
    34    11    33    1
    35    11    34    1
@<TRIPOS>SUBSTRUCTURE
     1 RES1        1 GROUP             0 ****  ****    0  
@<TRIPOS>MOLECULE
2C68:A:CT61297
    38    41     1     0     0
SMALL
NO_CHARGES
****
Generated from the CSD

@<TRIPOS>ATOM
     1 Br1     25.6841  12.4999  62.3589   Br        1 RES1   0.0000
     2 C2      25.9631  10.7909  61.5790   C.2       1 RES1   0.0000
     3 C3      26.3981   9.7349  62.3719   C.2       1 RES1   0.0000
     4 C4      26.5901   8.4499  61.8089   C.2       1 RES1   0.0000
     5 C5      26.3311   8.2359  60.4390   C.2       1 RES1   0.0000
     6 C6      25.8671   9.2989  59.6420   C.2       1 RES1   0.0000
     7 C7      25.6881  10.5779  60.2100   C.2       1 RES1   0.0000
     8 C8      27.0581   7.3309  62.6709   C.2       1 RES1   0.0000
     9 C9      28.2541   7.4519  63.3979   C.2       1 RES1   0.0000
    10 C10     28.6671   6.3910  64.2079   C.2       1 RES1   0.0000
    11 N11     27.8821   5.2950  64.2979   N.pl3     1 RES1   0.0000
    12 N12     28.0891   4.1790  64.9758   N.2       1 RES1   0.0000
    13 C13     27.0481   3.3270  64.7028   C.2       1 RES1   0.0000
    14 C14     26.7721   5.1860  63.5719   C.2       1 RES1   0.0000
    15 C15     26.2041   3.9710  63.8139   C.2       1 RES1   0.0000
    16 N16     26.3351   6.2010  62.7649   N.2       1 RES1   0.0000
    17 N17     29.8681   6.4770  64.9628   N.pl3     1 RES1   0.0000
    18 C18     30.9971   7.2729  64.4719   C.3       1 RES1   0.0000
    19 C19     31.2521   8.4209  65.4368   C.2       1 RES1   0.0000
    20 C20     31.0301   8.2469  66.7988   C.2       1 RES1   0.0000
    21 C21     31.2361   9.3139  67.6767   C.2       1 RES1   0.0000
    22 N22     31.6651  10.5179  67.2068   N.2       1 RES1   0.0000
    23 C23     31.9041  10.6959  65.8628   C.2       1 RES1   0.0000
    24 C24     31.6961   9.6489  64.9658   C.2       1 RES1   0.0000
    25 H1      25.3371  11.4027  59.5916   H         1 RES1   0.0000
    26 H2      30.6969   7.2825  67.1794   H         1 RES1   0.0000
    27 H3      28.8512   8.3602  63.3310   H         1 RES1   0.0000
    28 H4      31.0527   9.1822  68.7420   H         1 RES1   0.0000
    29 H5      30.7618   7.6705  63.4858   H         1 RES1   0.0000
    30 H6      31.8852   6.6458  64.4080   H         1 RES1   0.0000
    31 H7      25.2762   3.5855  63.3940   H         1 RES1   0.0000
    32 H8      26.9110   2.3267  65.1110   H         1 RES1   0.0000
    33 H9      31.8808   9.7936  63.9024   H         1 RES1   0.0000
    34 H10     32.2574  11.6594  65.4984   H         1 RES1   0.0000
    35 H11     26.5921   9.8968  63.4312   H         1 RES1   0.0000
    36 H12     29.9446   5.9845  65.8470   H         1 RES1   0.0000
    37 H13     26.4896   7.2521  59.9998   H         1 RES1   0.0000
    38 H14     25.6465   9.1345  58.5883   H         1 RES1   0.0000
@<TRIPOS>BOND
     1     1     2    1
     2     2     3    2
     3     2     7    1
     4     3     4    1
     5     4     5    2
     6     4     8    1
     7     5     6    1
     8     6     7    2
     9     8     9    1
    10     8    16    2
    11     9    10    2
    12    10    11    1
    13    10    17    1
    14    11    12    1
    15    11    14    1
    16    12    13    2
    17    13    15    1
    18    14    15    2
    19    14    16    1
    20    17    18    1
    21    18    19    1
    22    19    20    2
    23    19    24    1
    24    20    21    1
    25    21    22    2
    26    22    23    1
    27    23    24    2
    28     7    25    1
    29    20    26    1
    30     9    27    1
    31    21    28    1
    32    18    29    1
    33    18    30    1
    34    15    31    1
    35    13    32    1
    36    24    33    1
    37    23    34    1
    38     3    35    1
    39    17    36    1
    40     5    37    1
    41     6    38    1
@<TRIPOS>SUBSTRUCTURE
     1 RES1        1 GROUP             0 ****  ****    0  
@<TRIPOS>MOLECULE
6Q4J:A:HHB303
    28    29     1     0     0
SMALL
NO_CHARGES
****
Generated from the CSD

@<TRIPOS>ATOM
     1 C1      25.8627   9.9339  61.5474   C.2       1 RES1   0.0000
     2 C2      26.3047   9.6249  62.8154   C.2       1 RES1   0.0000
     3 C3      26.4057   8.3160  63.2184   C.2       1 RES1   0.0000
     4 C4      28.5786   5.2630  65.1644   C.2       1 RES1   0.0000
     5 C5      26.0587   7.2970  62.3384   C.2       1 RES1   0.0000
     6 C6      26.8977   5.2970  63.6134   C.2       1 RES1   0.0000
     7 C7      26.7707   3.9160  63.7324   C.2       1 RES1   0.0000
     8 C8      27.5947   3.3030  64.6154   C.2       1 RES1   0.0000
     9 C9      25.5907   7.6170  61.0704   C.2       1 RES1   0.0000
    10 N10     26.1057   5.9440  62.7014   N.pl3     1 RES1   0.0000
    11 N11     28.5206   3.9460  65.3534   N.2       1 RES1   0.0000
    12 C12     25.4627   8.9369  60.6684   C.2       1 RES1   0.0000
    13 N13     27.7976   5.9740  64.3404   N.2       1 RES1   0.0000
    14 O14     22.7287   9.4019  60.1054   O.3       1 RES1   0.0000
    15 C15     23.5137   9.6469  59.1504   C.2       1 RES1   0.0000
    16 O16     23.1417  10.1199  58.0494   O.2       1 RES1   0.0000
    17 C17     24.9897   9.2719  59.2814   C.3       1 RES1   0.0000
    18 H1      26.5759  10.4246  63.5030   H         1 RES1   0.0000
    19 H2      26.7556   8.0775  64.2217   H         1 RES1   0.0000
    20 H3      25.8267  10.9751  61.2304   H         1 RES1   0.0000
    21 H4      26.0447   3.3561  63.1446   H         1 RES1   0.0000
    22 H5      29.3292   5.8118  65.7313   H         1 RES1   0.0000
    23 H6      25.4475   5.3479  62.2099   H         1 RES1   0.0000
    24 H7      27.5033   2.2246  64.7363   H         1 RES1   0.0000
    25 H8      25.1707   8.4042  58.6488   H         1 RES1   0.0000
    26 H9      25.5806  10.1130  58.9217   H         1 RES1   0.0000
    27 H10     22.0500   8.7381  59.8141   H         1 RES1   0.0000
    28 H11     25.3202   6.8182  60.3815   H         1 RES1   0.0000
@<TRIPOS>BOND
     1     1     2    2
     2     1    12    1
     3     2     3    1
     4     3     5    2
     5     4    11    2
     6     4    13    1
     7     5     9    1
     8     5    10    1
     9     6     7    1
    10     6    10    1
    11     6    13    2
    12     7     8    2
    13     8    11    1
    14     9    12    2
    15    12    17    1
    16    14    15    1
    17    15    16    2
    18    15    17    1
    19     2    18    1
    20     3    19    1
    21     1    20    1
    22     7    21    1
    23     4    22    1
    24    10    23    1
    25     8    24    1
    26    17    25    1
    27    17    26    1
    28    14    27    1
    29     9    28    1
@<TRIPOS>SUBSTRUCTURE
     1 RES1        1 GROUP             0 ****  ****    0  
@<TRIPOS>MOLECULE
6Q4I:A:HGK302
    29    30     1     0     0
SMALL
NO_CHARGES
****
Generated from the CSD

@<TRIPOS>ATOM
     1 C1      26.4463   8.7129  60.1099   C.2       1 RES1   0.0000
     2 C2      26.4273   7.8979  61.2139   C.2       1 RES1   0.0000
     3 C3      26.2213   8.4549  62.4360   C.2       1 RES1   0.0000
     4 C4      27.2083   6.0079  64.8120   C.2       1 RES1   0.0000
     5 C5      27.3223   7.1629  64.0900   C.2       1 RES1   0.0000
     6 C6      28.5223   7.8399  64.0070   C.2       1 RES1   0.0000
     7 C7      29.6013   7.3149  64.6340   C.2       1 RES1   0.0000
     8 C8      28.3513   5.4199  65.3791   C.2       1 RES1   0.0000
     9 C9      25.9163   9.7788  62.5800   C.2       1 RES1   0.0000
    10 C10     25.8773  10.5778  61.4609   C.2       1 RES1   0.0000
    11 N11     29.5023   6.1479  65.3061   N.am      1 RES1   0.0000
    12 C12     26.0753  10.0408  60.2099   C.2       1 RES1   0.0000
    13 O13     24.6513  11.6098  57.2238   O.2       1 RES1   0.0000
    14 C14     24.7433  10.8568  58.1918   C.2       1 RES1   0.0000
    15 O15     23.8023  10.1208  58.5648   O.3       1 RES1   0.0000
    16 C16     26.0343  10.9048  58.9839   C.3       1 RES1   0.0000
    17 O17     26.1613   7.6569  63.5730   O.3       1 RES1   0.0000
    18 O18     28.3613   4.3639  66.0191   O.2       1 RES1   0.0000
    19 H1      26.8431  10.5909  58.3257   H         1 RES1   0.0000
    20 H2      26.1985  11.9355  59.2948   H         1 RES1   0.0000
    21 H3      23.5568   9.4995  57.8301   H         1 RES1   0.0000
    22 H4      26.5747   6.8237  61.1123   H         1 RES1   0.0000
    23 H5      30.3266   5.7944  65.7813   H         1 RES1   0.0000
    24 H6      26.7563   8.3101  59.1468   H         1 RES1   0.0000
    25 H7      25.6880  11.6450  61.5662   H         1 RES1   0.0000
    26 H8      25.7075  10.1947  63.5645   H         1 RES1   0.0000
    27 H9      30.5559   7.8375  64.5960   H         1 RES1   0.0000
    28 H10     28.5992   8.7731  63.4510   H         1 RES1   0.0000
    29 H11     26.2325   5.5439  64.9475   H         1 RES1   0.0000
@<TRIPOS>BOND
     1     1     2    2
     2     1    12    1
     3     2     3    1
     4     3     9    2
     5     3    17    1
     6     4     5    2
     7     4     8    1
     8     5     6    1
     9     5    17    1
    10     6     7    2
    11     7    11    1
    12     8    11   am
    13     8    18    2
    14     9    10    1
    15    10    12    2
    16    12    16    1
    17    13    14    2
    18    14    15    1
    19    14    16    1
    20    16    19    1
    21    16    20    1
    22    15    21    1
    23     2    22    1
    24    11    23    1
    25     1    24    1
    26    10    25    1
    27     9    26    1
    28     7    27    1
    29     6    28    1
    30     4    29    1
@<TRIPOS>SUBSTRUCTURE
     1 RES1        1 GROUP             0 ****  ****    0  
@<TRIPOS>MOLECULE
3QRT:A:X14535
    56    58     1     0     0
SMALL
NO_CHARGES
****
Generated from the CSD

@<TRIPOS>ATOM
     1 N1      28.2791   4.3629  65.7225   N.2       1 RES1   0.0000
     2 N2      27.5391   3.5099  64.9775   N.pl3     1 RES1   0.0000
     3 N3      29.5331   6.6168  66.6835   N.am      1 RES1   0.0000
     4 N4      33.0222  12.1817  63.1045   N.pl3     1 RES1   0.0000
     5 C5      26.7331   4.1429  64.0935   C.2       1 RES1   0.0000
     6 C6      26.9481   5.5078  64.2465   C.2       1 RES1   0.0000
     7 C7      27.9201   5.5968  65.2895   C.2       1 RES1   0.0000
     8 C8      25.7921   3.4769  63.1405   C.3       1 RES1   0.0000
     9 C9      24.8271   4.5179  62.4965   C.3       1 RES1   0.0000
    10 C10     25.5461   5.8758  62.1645   C.3       1 RES1   0.0000
    11 C11     26.2191   6.5418  63.4245   C.3       1 RES1   0.0000
    12 C12     24.5431   6.8828  61.4985   C.3       1 RES1   0.0000
    13 C13     28.4421   6.7418  65.8285   C.2       1 RES1   0.0000
    14 C14     30.1771   7.7468  67.3765   C.3       1 RES1   0.0000
    15 C15     31.1121   8.5588  66.5205   C.2       1 RES1   0.0000
    16 C16     31.7761   9.6407  67.1315   C.2       1 RES1   0.0000
    17 C17     32.6512  10.4447  66.3805   C.2       1 RES1   0.0000
    18 C18     32.8542  10.1557  65.0185   C.2       1 RES1   0.0000
    19 C19     32.1962   9.0757  64.3885   C.2       1 RES1   0.0000
    20 C20     31.3221   8.2728  65.1405   C.2       1 RES1   0.0000
    21 C21     23.4451   7.3358  62.4685   C.3       1 RES1   0.0000
    22 C22     23.8711   6.2168  60.3085   C.3       1 RES1   0.0000
    23 C23     25.3031   8.1238  61.0265   C.3       1 RES1   0.0000
    24 C24     26.4411   7.7748  60.0555   C.3       1 RES1   0.0000
    25 O25     27.9631   7.8458  65.5985   O.2       1 RES1   0.0000
    26 O26     34.7532  11.9517  64.9975   O.2       1 RES1   0.0000
    27 O27     34.7552  10.2927  63.2825   O.2       1 RES1   0.0000
    28 S28     33.9372  11.1517  64.0805   S.o2      1 RES1   0.0000
    29 H1      30.8075   7.4358  64.6708   H         1 RES1   0.0000
    30 H2      33.1666  11.2824  66.8480   H         1 RES1   0.0000
    31 H3      32.3645   8.8681  63.3328   H         1 RES1   0.0000
    32 H4      31.6113   9.8544  68.1865   H         1 RES1   0.0000
    33 H5      24.0112   4.7146  63.1905   H         1 RES1   0.0000
    34 H6      24.4264   4.0997  61.5743   H         1 RES1   0.0000
    35 H7      26.3329   5.6655  61.4415   H         1 RES1   0.0000
    36 H8      29.9096   5.6873  66.8399   H         1 RES1   0.0000
    37 H9      26.9273   7.2998  63.0931   H         1 RES1   0.0000
    38 H10     25.4488   7.0078  64.0372   H         1 RES1   0.0000
    39 H11     26.0301   7.2767  59.1786   H         1 RES1   0.0000
    40 H12     26.9499   8.6877  59.7494   H         1 RES1   0.0000
    41 H13     27.1501   7.1125  60.5502   H         1 RES1   0.0000
    42 H14     25.7254   8.6274  61.8948   H         1 RES1   0.0000
    43 H15     24.6055   8.7916  60.5232   H         1 RES1   0.0000
    44 H16     23.3294   5.3340  60.6448   H         1 RES1   0.0000
    45 H17     23.1753   6.9156  59.8466   H         1 RES1   0.0000
    46 H18     24.6273   5.9237  59.5817   H         1 RES1   0.0000
    47 H19     33.4859  12.8386  62.4851   H         1 RES1   0.0000
    48 H20     32.0084  12.1440  63.1372   H         1 RES1   0.0000
    49 H21     23.8995   7.8294  63.3263   H         1 RES1   0.0000
    50 H22     22.7771   8.0307  61.9617   H         1 RES1   0.0000
    51 H23     22.8790   6.4690  62.8063   H         1 RES1   0.0000
    52 H24     30.7447   7.3503  68.2171   H         1 RES1   0.0000
    53 H25     29.3950   8.4082  67.7463   H         1 RES1   0.0000
    54 H26     25.2068   2.7326  63.6784   H         1 RES1   0.0000
    55 H27     26.3663   2.9885  62.3546   H         1 RES1   0.0000
    56 H28     27.5837   2.5003  65.0717   H         1 RES1   0.0000
@<TRIPOS>BOND
     1     1     2    1
     2     1     7    2
     3     2     5    1
     4     3    13   am
     5     3    14    1
     6     4    28    1
     7     5     6    2
     8     5     8    1
     9     6     7    1
    10     6    11    1
    11     7    13    1
    12     8     9    1
    13     9    10    1
    14    10    11    1
    15    10    12    1
    16    12    21    1
    17    12    22    1
    18    12    23    1
    19    13    25    2
    20    14    15    1
    21    15    16    2
    22    15    20    1
    23    16    17    1
    24    17    18    2
    25    18    19    1
    26    18    28    1
    27    19    20    2
    28    23    24    1
    29    26    28    2
    30    27    28    2
    31    20    29    1
    32    17    30    1
    33    19    31    1
    34    16    32    1
    35     9    33    1
    36     9    34    1
    37    10    35    1
    38     3    36    1
    39    11    37    1
    40    11    38    1
    41    24    39    1
    42    24    40    1
    43    24    41    1
    44    23    42    1
    45    23    43    1
    46    22    44    1
    47    22    45    1
    48    22    46    1
    49     4    47    1
    50     4    48    1
    51    21    49    1
    52    21    50    1
    53    21    51    1
    54    14    52    1
    55    14    53    1
    56     8    54    1
    57     8    55    1
    58     2    56    1
@<TRIPOS>SUBSTRUCTURE
     1 RES1        1 GROUP             0 ****  ****    0  
@<TRIPOS>MOLECULE
2W17:A:I191300
    63    66     1     0     0
SMALL
NO_CHARGES
****
Generated from the CSD

@<TRIPOS>ATOM
     1 C1      27.0261   7.6160  60.4131   C.3       1 RES1   0.0000
     2 C2      26.6451   7.6870  61.8771   C.3       1 RES1   0.0000
     3 C3      26.5621   9.1121  62.3991   C.3       1 RES1   0.0000
     4 N4      25.4341   6.9100  62.0741   N.pl3     1 RES1   0.0000
     5 C5      24.2651   7.1730  61.4701   C.2       1 RES1   0.0000
     6 C6      23.9361   8.2860  60.5281   C.3       1 RES1   0.0000
     7 N7      23.4161   6.2290  61.8691   N.2       1 RES1   0.0000
     8 C8      24.0181   5.3430  62.7451   C.2       1 RES1   0.0000
     9 C9      25.3201   5.7720  62.8851   C.2       1 RES1   0.0000
    10 C10     26.3501   5.1240  63.7591   C.2       1 RES1   0.0000
    11 N11     27.3231   5.8950  64.2621   N.2       1 RES1   0.0000
    12 C12     28.2431   5.2970  65.0330   C.2       1 RES1   0.0000
    13 N13     29.3121   6.0030  65.6190   N.pl3     1 RES1   0.0000
    14 C14     30.0321   7.1310  65.1910   C.2       1 RES1   0.0000
    15 C15     29.8091   7.7740  63.9941   C.2       1 RES1   0.0000
    16 C16     30.5641   8.8750  63.6421   C.2       1 RES1   0.0000
    17 C17     31.5401   9.3341  64.5061   C.2       1 RES1   0.0000
    18 C18     31.8031   8.7080  65.7110   C.2       1 RES1   0.0000
    19 C19     31.0281   7.6040  66.0310   C.2       1 RES1   0.0000
    20 C20     32.3691  10.4761  64.1511   C.2       1 RES1   0.0000
    21 O21     33.5741  10.2641  64.1191   O.2       1 RES1   0.0000
    22 N22     31.8141  11.7091  63.9081   N.am      1 RES1   0.0000
    23 C23     30.4981  11.9531  63.3811   C.3       1 RES1   0.0000
    24 C24     30.5331  13.4191  62.9651   C.3       1 RES1   0.0000
    25 C25     31.9981  13.7931  62.7771   C.3       1 RES1   0.0000
    26 C26     32.7641  12.7171  63.4961   C.3       1 RES1   0.0000
    27 N27     32.4131  13.7001  61.3371   N.3       1 RES1   0.0000
    28 C28     31.3701  14.0811  60.3461   C.3       1 RES1   0.0000
    29 C29     33.6401  14.5061  61.0731   C.3       1 RES1   0.0000
    30 N30     28.2311   3.9900  65.3330   N.2       1 RES1   0.0000
    31 C31     27.2541   3.2460  64.8220   C.2       1 RES1   0.0000
    32 C32     26.2831   3.7680  64.0211   C.2       1 RES1   0.0000
    33 F33     25.3401   2.9380  63.5461   F         1 RES1   0.0000
    34 H1      27.2293   2.1818  65.0519   H         1 RES1   0.0000
    35 H2      34.4564  14.1383  61.6931   H         1 RES1   0.0000
    36 H3      33.9136  14.4174  60.0228   H         1 RES1   0.0000
    37 H4      33.4461  15.5510  61.3107   H         1 RES1   0.0000
    38 H5      31.0700  15.1144  60.5140   H         1 RES1   0.0000
    39 H6      31.7716  13.9788  59.3390   H         1 RES1   0.0000
    40 H7      30.5055  13.4289  60.4602   H         1 RES1   0.0000
    41 H8      32.2131  14.7776  63.1900   H         1 RES1   0.0000
    42 H9      33.5051  12.2791  62.8290   H         1 RES1   0.0000
    43 H10     33.2636  13.1359  64.3684   H         1 RES1   0.0000
    44 H11     30.0853  14.0388  63.7405   H         1 RES1   0.0000
    45 H12     29.9892  13.5562  62.0317   H         1 RES1   0.0000
    46 H13     29.7387  11.7851  64.1433   H         1 RES1   0.0000
    47 H14     30.2996  11.3120  62.5234   H         1 RES1   0.0000
    48 H15     31.2079   7.0908  66.9745   H         1 RES1   0.0000
    49 H16     32.5848   9.0666  66.3791   H         1 RES1   0.0000
    50 H17     30.3919   9.3775  62.6914   H         1 RES1   0.0000
    51 H18     29.0329   7.4121  63.3214   H         1 RES1   0.0000
    52 H19     24.5776   8.2204  59.6505   H         1 RES1   0.0000
    53 H20     22.8938   8.2069  60.2226   H         1 RES1   0.0000
    54 H21     24.0972   9.2416  61.0249   H         1 RES1   0.0000
    55 H22     25.8111   9.6624  61.8342   H         1 RES1   0.0000
    56 H23     26.2855   9.0974  63.4523   H         1 RES1   0.0000
    57 H24     27.5302   9.5975  62.2848   H         1 RES1   0.0000
    58 H25     27.4364   7.1894  62.4359   H         1 RES1   0.0000
    59 H26     28.0012   8.0790  60.2689   H         1 RES1   0.0000
    60 H27     27.0690   6.5741  60.0993   H         1 RES1   0.0000
    61 H28     26.2821   8.1439  59.8184   H         1 RES1   0.0000
    62 H29     29.6174   5.6292  66.5119   H         1 RES1   0.0000
    63 H30     23.5567   4.4818  63.2261   H         1 RES1   0.0000
@<TRIPOS>BOND
     1     1     2    1
     2     2     3    1
     3     2     4    1
     4     4     5    1
     5     4     9    1
     6     5     6    1
     7     5     7    2
     8     7     8    1
     9     8     9    2
    10     9    10    1
    11    10    11    2
    12    10    32    1
    13    11    12    1
    14    12    13    1
    15    12    30    2
    16    13    14    1
    17    14    15    2
    18    14    19    1
    19    15    16    1
    20    16    17    2
    21    17    18    1
    22    17    20    1
    23    18    19    2
    24    20    21    2
    25    20    22   am
    26    22    23    1
    27    22    26    1
    28    23    24    1
    29    24    25    1
    30    25    26    1
    31    25    27    1
    32    27    28    1
    33    27    29    1
    34    30    31    1
    35    31    32    2
    36    32    33    1
    37    31    34    1
    38    29    35    1
    39    29    36    1
    40    29    37    1
    41    28    38    1
    42    28    39    1
    43    28    40    1
    44    25    41    1
    45    26    42    1
    46    26    43    1
    47    24    44    1
    48    24    45    1
    49    23    46    1
    50    23    47    1
    51    19    48    1
    52    18    49    1
    53    16    50    1
    54    15    51    1
    55     6    52    1
    56     6    53    1
    57     6    54    1
    58     3    55    1
    59     3    56    1
    60     3    57    1
    61     2    58    1
    62     1    59    1
    63     1    60    1
    64     1    61    1
    65    13    62    1
    66     8    63    1
@<TRIPOS>SUBSTRUCTURE
     1 RES1        1 GROUP             0 ****  ****    0  
@<TRIPOS>MOLECULE
2BTR:A:U73300
    33    34     1     0     0
SMALL
NO_CHARGES
****
Generated from the CSD

@<TRIPOS>ATOM
     1 O1      29.2345   8.0953  64.2548   O.2       1 RES1   0.0000
     2 C2      30.0305   7.4242  64.9078   C.2       1 RES1   0.0000
     3 N3      29.7865   6.1642  65.2438   N.am      1 RES1   0.0000
     4 C4      28.4945   5.4352  64.9978   C.2       1 RES1   0.0000
     5 N5      28.2845   4.1111  65.3228   N.2       1 RES1   0.0000
     6 C6      27.0954   3.8231  64.9318   C.2       1 RES1   0.0000
     7 S7      27.2364   6.2082  64.0578   S.3       1 RES1   0.0000
     8 C8      26.4084   4.7582  64.2558   C.2       1 RES1   0.0000
     9 C9      25.0274   4.5001  63.6858   C.3       1 RES1   0.0000
    10 C10     25.1654   4.0171  62.2258   C.3       1 RES1   0.0000
    11 C11     24.0694   5.6792  63.8098   C.3       1 RES1   0.0000
    12 C12     31.3945   7.9763  65.2598   C.3       1 RES1   0.0000
    13 C13     31.4065   8.9353  66.4048   C.2       1 RES1   0.0000
    14 C14     31.1935  10.2863  66.1938   C.2       1 RES1   0.0000
    15 C15     31.1915  11.1414  67.2969   C.2       1 RES1   0.0000
    16 C16     31.3975  10.6163  68.5449   C.2       1 RES1   0.0000
    17 N17     31.6195   9.3063  68.7079   N.2       1 RES1   0.0000
    18 C18     31.6305   8.4633  67.6749   C.2       1 RES1   0.0000
    19 H1      26.6570   2.8487  65.1424   H         1 RES1   0.0000
    20 H2      31.8167   7.4028  67.8380   H         1 RES1   0.0000
    21 H3      31.3805  11.2718  69.4144   H         1 RES1   0.0000
    22 H4      31.0286  12.2103  67.1672   H         1 RES1   0.0000
    23 H5      31.0310  10.6738  65.1891   H         1 RES1   0.0000
    24 H6      31.7883   8.4898  64.3839   H         1 RES1   0.0000
    25 H7      32.0437   7.1393  65.5123   H         1 RES1   0.0000
    26 H8      24.4789   6.5371  63.2785   H         1 RES1   0.0000
    27 H9      23.1060   5.4111  63.3785   H         1 RES1   0.0000
    28 H10     23.9388   5.9318  64.8610   H         1 RES1   0.0000
    29 H11     25.7494   3.0983  62.2011   H         1 RES1   0.0000
    30 H12     24.1763   3.8298  61.8104   H         1 RES1   0.0000
    31 H13     25.6678   4.7825  61.6362   H         1 RES1   0.0000
    32 H14     24.5962   3.6776  64.2545   H         1 RES1   0.0000
    33 H15     30.5317   5.6511  65.7038   H         1 RES1   0.0000
@<TRIPOS>BOND
     1     1     2    2
     2     2     3   am
     3     2    12    1
     4     3     4    1
     5     4     5    2
     6     4     7    1
     7     5     6    1
     8     6     8    2
     9     7     8    1
    10     8     9    1
    11     9    10    1
    12     9    11    1
    13    12    13    1
    14    13    14    2
    15    13    18    1
    16    14    15    1
    17    15    16    2
    18    16    17    1
    19    17    18    2
    20     6    19    1
    21    18    20    1
    22    16    21    1
    23    15    22    1
    24    14    23    1
    25    12    24    1
    26    12    25    1
    27    11    26    1
    28    11    27    1
    29    11    28    1
    30    10    29    1
    31    10    30    1
    32    10    31    1
    33     9    32    1
    34     3    33    1
@<TRIPOS>SUBSTRUCTURE
     1 RES1        1 GROUP             0 ****  ****    0  
@<TRIPOS>MOLECULE
3BHU:A:MHR299
    35    37     1     0     0
SMALL
NO_CHARGES
****
Generated from the CSD

@<TRIPOS>ATOM
     1 C1      28.1482   6.8439  64.7320   C.2       1 RES1   0.0000
     2 C2      28.7682   5.8289  65.4610   C.2       1 RES1   0.0000
     3 C3      27.0082   6.6129  63.9610   C.2       1 RES1   0.0000
     4 C4      24.5032   4.8759  62.2131   C.2       1 RES1   0.0000
     5 N5      22.5582   3.0700  59.7962   N.pl3     1 RES1   0.0000
     6 C6      23.0872   4.1120  60.4862   C.2       1 RES1   0.0000
     7 N7      22.7742   5.3889  60.1592   N.2       1 RES1   0.0000
     8 C8      23.3022   6.4259  60.8421   C.2       1 RES1   0.0000
     9 C9      24.1592   6.1929  61.9151   C.2       1 RES1   0.0000
    10 N10     23.9222   3.8670  61.5171   N.2       1 RES1   0.0000
    11 C11     25.3432   4.5479  63.4031   C.2       1 RES1   0.0000
    12 C12     25.5322   3.0990  63.8011   C.2       1 RES1   0.0000
    13 N13     26.6142   3.0100  64.6410   N.pl3     1 RES1   0.0000
    14 C14     27.2302   4.2240  64.7650   C.2       1 RES1   0.0000
    15 N15     28.3352   4.5559  65.4800   N.2       1 RES1   0.0000
    16 C16     26.5182   5.2079  63.9380   C.2       1 RES1   0.0000
    17 O17     26.4122   7.6349  63.2631   O.3       1 RES1   0.0000
    18 C18     27.1812   8.7239  62.7391   C.3       1 RES1   0.0000
    19 C19     26.5572   9.2259  61.4371   C.3       1 RES1   0.0000
    20 C20     26.9082   8.3039  60.2852   C.3       1 RES1   0.0000
    21 H1      24.9121   2.2654  63.4748   H         1 RES1   0.0000
    22 H2      24.5506   7.0194  62.5064   H         1 RES1   0.0000
    23 H3      28.5672   7.8485  64.7657   H         1 RES1   0.0000
    24 H4      23.0578   7.4472  60.5537   H         1 RES1   0.0000
    25 H5      22.8003   2.1177  60.0506   H         1 RES1   0.0000
    26 H6      21.9205   3.2430  59.0257   H         1 RES1   0.0000
    27 H7      29.6510   6.0812  66.0466   H         1 RES1   0.0000
    28 H8      28.1983   8.3866  62.5450   H         1 RES1   0.0000
    29 H9      27.2001   9.5346  63.4660   H         1 RES1   0.0000
    30 H10     26.9328  10.2253  61.2225   H         1 RES1   0.0000
    31 H11     25.4746   9.2614  61.5497   H         1 RES1   0.0000
    32 H12     26.5319   7.3034  60.4934   H         1 RES1   0.0000
    33 H13     26.4547   8.6789  59.3689   H         1 RES1   0.0000
    34 H14     27.9901   8.2673  60.1662   H         1 RES1   0.0000
    35 H15     26.9155   2.1596  65.1061   H         1 RES1   0.0000
@<TRIPOS>BOND
     1     1     2    2
     2     1     3    1
     3     2    15    1
     4     3    16    2
     5     3    17    1
     6     4     9    1
     7     4    10    2
     8     4    11    1
     9     5     6    1
    10     6     7    2
    11     6    10    1
    12     7     8    1
    13     8     9    2
    14    11    12    2
    15    11    16    1
    16    12    13    1
    17    13    14    1
    18    14    15    2
    19    14    16    1
    20    17    18    1
    21    18    19    1
    22    19    20    1
    23    12    21    1
    24     9    22    1
    25     1    23    1
    26     8    24    1
    27     5    25    1
    28     5    26    1
    29     2    27    1
    30    18    28    1
    31    18    29    1
    32    19    30    1
    33    19    31    1
    34    20    32    1
    35    20    33    1
    36    20    34    1
    37    13    35    1
@<TRIPOS>SUBSTRUCTURE
     1 RES1        1 GROUP             0 ****  ****    0  
@<TRIPOS>MOLECULE
1H0V:A:UN41299
    30    32     1     0     0
SMALL
NO_CHARGES
****
Generated from the CSD

@<TRIPOS>ATOM
     1 C1      29.1145   5.9370  65.5233   C.2       1 RES1   0.0000
     2 C2      27.5805   4.4100  64.7533   C.2       1 RES1   0.0000
     3 C3      26.9985   5.3960  63.9293   C.2       1 RES1   0.0000
     4 C4      27.7425   9.3880  61.6712   C.3       1 RES1   0.0000
     5 C5      26.5095  11.4760  61.6172   C.3       1 RES1   0.0000
     6 C6      26.3435  10.0040  61.8962   C.3       1 RES1   0.0000
     7 N7      26.8755   3.3360  64.4773   N.pl3     1 RES1   0.0000
     8 N8      28.6135   4.7140  65.5123   N.2       1 RES1   0.0000
     9 N9      30.1755   6.1210  66.3223   N.pl3     1 RES1   0.0000
    10 N10     28.5785   6.9430  64.7763   N.2       1 RES1   0.0000
    11 C11     27.5155   6.7330  64.0063   C.2       1 RES1   0.0000
    12 O12     26.9845   7.6830  63.2292   O.3       1 RES1   0.0000
    13 C13     28.1125   8.5020  62.8432   C.3       1 RES1   0.0000
    14 C14     28.0035  11.6960  61.6122   C.2       1 RES1   0.0000
    15 N15     25.9805   4.9210  63.2212   N.2       1 RES1   0.0000
    16 C16     25.9175   3.6670  63.5912   C.2       1 RES1   0.0000
    17 O17     28.4535  12.8340  61.5892   O.2       1 RES1   0.0000
    18 N18     28.6895  10.5060  61.6312   N.am      1 RES1   0.0000
    19 H1      29.7003  10.4147  61.6193   H         1 RES1   0.0000
    20 H2      25.1701   2.9664  63.2218   H         1 RES1   0.0000
    21 H3      28.4086   9.1255  63.6855   H         1 RES1   0.0000
    22 H4      28.9433   7.8580  62.5585   H         1 RES1   0.0000
    23 H5      30.6135   7.0347  66.3820   H         1 RES1   0.0000
    24 H6      30.5407   5.3466  66.8674   H         1 RES1   0.0000
    25 H7      27.0278   2.4113  64.8671   H         1 RES1   0.0000
    26 H8      26.0167   9.8445  62.9227   H         1 RES1   0.0000
    27 H9      25.6186   9.5652  61.2122   H         1 RES1   0.0000
    28 H10     27.7706   8.8257  60.7391   H         1 RES1   0.0000
    29 H11     26.0358  12.0709  62.3967   H         1 RES1   0.0000
    30 H12     26.0794  11.7351  60.6509   H         1 RES1   0.0000
@<TRIPOS>BOND
     1     1     8    2
     2     1     9    1
     3     1    10    1
     4     2     3    2
     5     2     7    1
     6     2     8    1
     7     3    11    1
     8     3    15    1
     9     4     6    1
    10     4    13    1
    11     4    18    1
    12     5     6    1
    13     5    14    1
    14     7    16    1
    15    10    11    2
    16    11    12    1
    17    12    13    1
    18    14    17    2
    19    14    18   am
    20    15    16    2
    21    18    19    1
    22    16    20    1
    23    13    21    1
    24    13    22    1
    25     9    23    1
    26     9    24    1
    27     7    25    1
    28     6    26    1
    29     6    27    1
    30     4    28    1
    31     5    29    1
    32     5    30    1
@<TRIPOS>SUBSTRUCTURE
     1 RES1        1 GROUP             0 ****  ****    0  
@<TRIPOS>MOLECULE
3BHT:A:MFR299
    29    31     1     0     0
SMALL
NO_CHARGES
****
Generated from the CSD

@<TRIPOS>ATOM
     1 C1      28.0926   6.8964  64.9174   C.2       1 RES1   0.0000
     2 C2      28.6386   5.8654  65.6953   C.2       1 RES1   0.0000
     3 C3      27.0266   6.6854  64.0254   C.2       1 RES1   0.0000
     4 C4      24.5747   4.9993  62.1046   C.2       1 RES1   0.0000
     5 N5      22.6497   3.1132  59.7218   N.pl3     1 RES1   0.0000
     6 C6      23.1407   4.1903  60.3967   C.2       1 RES1   0.0000
     7 N7      22.7897   5.4664  60.0577   N.2       1 RES1   0.0000
     8 C8      23.3037   6.5214  60.7277   C.2       1 RES1   0.0000
     9 C9      24.1777   6.3174  61.8056   C.2       1 RES1   0.0000
    10 N10     23.9927   3.9763  61.4216   N.2       1 RES1   0.0000
    11 C11     25.4197   4.6453  63.2845   C.2       1 RES1   0.0000
    12 C12     25.5567   3.1932  63.6815   C.2       1 RES1   0.0000
    13 N13     26.5546   3.0882  64.6124   N.pl3     1 RES1   0.0000
    14 C14     26.5486   5.2833  63.9315   C.2       1 RES1   0.0000
    15 O15     26.4756   7.6815  63.2575   O.3       1 RES1   0.0000
    16 C16     26.8966   9.0446  63.3435   C.3       1 RES1   0.0000
    17 C17     27.1646   4.2913  64.8114   C.2       1 RES1   0.0000
    18 N18     28.1866   4.5953  65.6553   N.2       1 RES1   0.0000
    19 H1      27.9549   9.1140  63.0962   H         1 RES1   0.0000
    20 H2      26.3200   9.6475  62.6435   H         1 RES1   0.0000
    21 H3      26.7357   9.4110  64.3563   H         1 RES1   0.0000
    22 H4      26.8069   2.2293  65.0908   H         1 RES1   0.0000
    23 H5      24.9612   2.3688  63.2921   H         1 RES1   0.0000
    24 H6      24.5403   7.1571  62.3966   H         1 RES1   0.0000
    25 H7      23.0381   7.5345  60.4294   H         1 RES1   0.0000
    26 H8      22.9260   2.1751  59.9934   H         1 RES1   0.0000
    27 H9      22.0076   3.2490  58.9475   H         1 RES1   0.0000
    28 H10     29.4661   6.1012  66.3628   H         1 RES1   0.0000
    29 H11     28.5100   7.8982  65.0076   H         1 RES1   0.0000
@<TRIPOS>BOND
     1     1     2    2
     2     1     3    1
     3     2    18    1
     4     3    14    2
     5     3    15    1
     6     4     9    1
     7     4    10    2
     8     4    11    1
     9     5     6    1
    10     6     7    2
    11     6    10    1
    12     7     8    1
    13     8     9    2
    14    11    12    2
    15    11    14    1
    16    12    13    1
    17    13    17    1
    18    14    17    1
    19    15    16    1
    20    17    18    2
    21    16    19    1
    22    16    20    1
    23    16    21    1
    24    13    22    1
    25    12    23    1
    26     9    24    1
    27     8    25    1
    28     5    26    1
    29     5    27    1
    30     2    28    1
    31     1    29    1
@<TRIPOS>SUBSTRUCTURE
     1 RES1        1 GROUP             0 ****  ****    0  
@<TRIPOS>MOLECULE
1H0W:A:2071299
    36    38     1     0     0
SMALL
NO_CHARGES
****
Generated from the CSD

@<TRIPOS>ATOM
     1 N1      28.9922   6.9639  64.9013   N.2       1 RES1   0.0000
     2 C2      29.4902   5.9319  65.6344   C.2       1 RES1   0.0000
     3 C3      28.9132   4.6729  65.6434   C.2       1 RES1   0.0000
     4 C4      27.8032   4.3980  64.9133   C.2       1 RES1   0.0000
     5 C5      27.2502   5.4649  64.1393   C.2       1 RES1   0.0000
     6 C6      27.8932   6.7939  64.1293   C.2       1 RES1   0.0000
     7 O7      27.3532   7.8009  63.3483   O.3       1 RES1   0.0000
     8 C8      28.1012   9.0059  63.1843   C.3       1 RES1   0.0000
     9 N9      26.1822   5.0159  63.5013   N.2       1 RES1   0.0000
    10 C10     26.0332   3.7400  63.8383   C.2       1 RES1   0.0000
    11 N11     27.0062   3.3650  64.6953   N.pl3     1 RES1   0.0000
    12 N12     30.6052   6.0849  66.4054   N.pl3     1 RES1   0.0000
    13 C13     27.5362   9.7899  62.0143   C.3       1 RES1   0.0000
    14 C14     26.2842  10.5099  62.4933   C.3       1 RES1   0.0000
    15 C15     26.6102  11.9639  62.7783   C.3       1 RES1   0.0000
    16 C16     26.9422  12.6759  61.4803   C.3       1 RES1   0.0000
    17 C17     28.1422  12.0149  60.8103   C.3       1 RES1   0.0000
    18 C18     28.6212  10.7179  61.4773   C.3       1 RES1   0.0000
    19 H1      29.1990  10.1608  60.7413   H         1 RES1   0.0000
    20 H2      29.2648  10.9927  62.3117   H         1 RES1   0.0000
    21 H3      28.9680  12.7248  60.8189   H         1 RES1   0.0000
    22 H4      27.8712  11.7858  59.7808   H         1 RES1   0.0000
    23 H5      27.1767  13.7182  61.6913   H         1 RES1   0.0000
    24 H6      26.0838  12.6251  60.8122   H         1 RES1   0.0000
    25 H7      27.4653  12.0184  63.4504   H         1 RES1   0.0000
    26 H8      25.7508  12.4431  63.2448   H         1 RES1   0.0000
    27 H9      25.2392   3.0892  63.4750   H         1 RES1   0.0000
    28 H10     25.9190  10.0354  63.4029   H         1 RES1   0.0000
    29 H11     25.5172  10.4550  61.7222   H         1 RES1   0.0000
    30 H12     27.2563   9.0898  61.2285   H         1 RES1   0.0000
    31 H13     30.9605   5.3020  66.9449   H         1 RES1   0.0000
    32 H14     31.0795   6.9816  66.4395   H         1 RES1   0.0000
    33 H15     27.1094   2.4422  65.1051   H         1 RES1   0.0000
    34 H16     29.1448   8.7629  62.9897   H         1 RES1   0.0000
    35 H17     28.0309   9.6043  64.0914   H         1 RES1   0.0000
    36 H18     29.3602   3.8865  66.2497   H         1 RES1   0.0000
@<TRIPOS>BOND
     1     1     2    2
     2     1     6    1
     3     2     3    1
     4     2    12    1
     5     3     4    2
     6     4     5    1
     7     4    11    1
     8     5     6    2
     9     5     9    1
    10     6     7    1
    11     7     8    1
    12     8    13    1
    13     9    10    2
    14    10    11    1
    15    13    14    1
    16    13    18    1
    17    14    15    1
    18    15    16    1
    19    16    17    1
    20    17    18    1
    21    18    19    1
    22    18    20    1
    23    17    21    1
    24    17    22    1
    25    16    23    1
    26    16    24    1
    27    15    25    1
    28    15    26    1
    29    10    27    1
    30    14    28    1
    31    14    29    1
    32    13    30    1
    33    12    31    1
    34    12    32    1
    35    11    33    1
    36     8    34    1
    37     8    35    1
    38     3    36    1
@<TRIPOS>SUBSTRUCTURE
     1 RES1        1 GROUP             0 ****  ****    0  
@<TRIPOS>MOLECULE
4EK4:A:1CK301
    26    27     1     0     0
SMALL
NO_CHARGES
****
Generated from the CSD

@<TRIPOS>ATOM
     1 N1      28.4546   4.0959  65.5491   N.pl3     1 RES1   0.0000
     2 N2      29.4697   6.1878  65.5211   N.am      1 RES1   0.0000
     3 N3      27.3886   3.5109  65.0111   N.2       1 RES1   0.0000
     4 C4      25.3786   3.9989  63.5700   C.3       1 RES1   0.0000
     5 O5      29.0647   7.8808  64.0780   O.2       1 RES1   0.0000
     6 Br6     34.5398  10.6567  67.0461   Br        1 RES1   0.0000
     7 C7      32.7317   9.7197  65.0891   C.2       1 RES1   0.0000
     8 C8      32.3137   8.8327  67.3201   C.2       1 RES1   0.0000
     9 C9      31.6387   8.9827  64.6120   C.2       1 RES1   0.0000
    10 C10     31.2257   8.1058  66.8171   C.2       1 RES1   0.0000
    11 C11     27.3586   5.5468  64.3400   C.2       1 RES1   0.0000
    12 C12     29.7517   7.3998  64.9761   C.2       1 RES1   0.0000
    13 C13     26.6846   4.3639  64.2950   C.2       1 RES1   0.0000
    14 C14     33.0647   9.6537  66.4491   C.2       1 RES1   0.0000
    15 C15     30.8707   8.1428  65.4651   C.2       1 RES1   0.0000
    16 C16     28.4506   5.3558  65.1331   C.2       1 RES1   0.0000
    17 H1      33.3166  10.3377  64.4095   H         1 RES1   0.0000
    18 H2      27.0779   6.4710  63.8371   H         1 RES1   0.0000
    19 H3      30.6389   7.4935  67.5003   H         1 RES1   0.0000
    20 H4      30.0640   5.8708  66.2804   H         1 RES1   0.0000
    21 H5      32.5782   8.7652  68.3743   H         1 RES1   0.0000
    22 H6      31.3703   9.0553  63.5591   H         1 RES1   0.0000
    23 H7      24.6438   3.6555  64.2967   H         1 RES1   0.0000
    24 H8      24.9940   4.8759  63.0514   H         1 RES1   0.0000
    25 H9      25.5731   3.2068  62.8485   H         1 RES1   0.0000
    26 H10     29.1393   3.6623  66.1601   H         1 RES1   0.0000
@<TRIPOS>BOND
     1     1     3    1
     2     1    16    1
     3     2    12   am
     4     2    16    1
     5     3    13    2
     6     4    13    1
     7     5    12    2
     8     6    14    1
     9     7     9    2
    10     7    14    1
    11     8    10    1
    12     8    14    2
    13     9    15    1
    14    10    15    2
    15    11    13    1
    16    11    16    2
    17    12    15    1
    18     7    17    1
    19    11    18    1
    20    10    19    1
    21     2    20    1
    22     8    21    1
    23     9    22    1
    24     4    23    1
    25     4    24    1
    26     4    25    1
    27     1    26    1
@<TRIPOS>SUBSTRUCTURE
     1 RES1        1 GROUP             0 ****  ****    0  
@<TRIPOS>MOLECULE
2UZL:A:C941297
    37    39     1     0     0
SMALL
NO_CHARGES
****
Generated from the CSD

@<TRIPOS>ATOM
     1 O1      32.0390  11.2967  65.8522   O.2       1 RES1   0.0000
     2 S2      31.8411  10.8347  64.5262   S.o2      1 RES1   0.0000
     3 O3      33.0592  10.4467  63.9072   O.2       1 RES1   0.0000
     4 N4      31.0381  11.8987  63.6461   N.pl3     1 RES1   0.0000
     5 C5      30.8071   9.4118  64.6032   C.2       1 RES1   0.0000
     6 C6      30.7670   8.5798  65.7282   C.2       1 RES1   0.0000
     7 C7      31.6470   8.8538  66.9442   C.3       1 RES1   0.0000
     8 F8      32.8300   9.3198  66.5602   F         1 RES1   0.0000
     9 F9      31.8220   7.7238  67.6172   F         1 RES1   0.0000
    10 F10     31.0579   9.7467  67.7332   F         1 RES1   0.0000
    11 C11     29.9180   7.4698  65.7372   C.2       1 RES1   0.0000
    12 C12     29.1080   7.2108  64.6372   C.2       1 RES1   0.0000
    13 C13     29.1360   8.0578  63.5391   C.2       1 RES1   0.0000
    14 C14     29.9791   9.1518  63.5211   C.2       1 RES1   0.0000
    15 C15     28.1630   6.0508  64.6062   C.2       1 RES1   0.0000
    16 O16     27.0950   5.9678  63.7652   O.3       1 RES1   0.0000
    17 C17     28.2179   4.8809  65.3522   C.2       1 RES1   0.0000
    18 C18     27.1489   4.0829  64.9482   C.2       1 RES1   0.0000
    19 C19     26.4559   4.7819  63.9632   C.2       1 RES1   0.0000
    20 C20     25.2579   4.3399  63.2181   C.2       1 RES1   0.0000
    21 C21     24.8179   5.0889  62.1871   C.2       1 RES1   0.0000
    22 S22     25.4810   6.5428  61.7271   S.3       1 RES1   0.0000
    23 C23     24.3790   6.7188  60.4951   C.2       1 RES1   0.0000
    24 N24     24.3540   7.7158  59.7081   N.pl3     1 RES1   0.0000
    25 N25     23.5320   5.6859  60.4191   N.2       1 RES1   0.0000
    26 C26     23.7529   4.7509  61.3561   C.2       1 RES1   0.0000
    27 O27     23.0919   3.7219  61.4651   O.2       1 RES1   0.0000
    28 H1      23.6549   7.7654  58.9739   H         1 RES1   0.0000
    29 H2      25.0331   8.4627  59.8135   H         1 RES1   0.0000
    30 H3      24.7392   3.4240  63.4976   H         1 RES1   0.0000
    31 H4      30.8261  11.6967  62.6743   H         1 RES1   0.0000
    32 H5      30.7398  12.7768  64.0587   H         1 RES1   0.0000
    33 H6      28.4892   7.8590  62.6858   H         1 RES1   0.0000
    34 H7      29.8909   6.8098  66.6030   H         1 RES1   0.0000
    35 H8      29.9938   9.8119  62.6551   H         1 RES1   0.0000
    36 H9      28.9582   4.6331  66.1114   H         1 RES1   0.0000
    37 H10     26.9012   3.0944  65.3323   H         1 RES1   0.0000
@<TRIPOS>BOND
     1     1     2    2
     2     2     3    2
     3     2     4    1
     4     2     5    1
     5     5     6    2
     6     5    14    1
     7     6     7    1
     8     6    11    1
     9     7     8    1
    10     7     9    1
    11     7    10    1
    12    11    12    2
    13    12    13    1
    14    12    15    1
    15    13    14    2
    16    15    16    1
    17    15    17    2
    18    16    19    1
    19    17    18    1
    20    18    19    2
    21    19    20    1
    22    20    21    2
    23    21    22    1
    24    21    26    1
    25    22    23    1
    26    23    24    1
    27    23    25    2
    28    25    26    1
    29    26    27    2
    30    24    28    1
    31    24    29    1
    32    20    30    1
    33     4    31    1
    34     4    32    1
    35    13    33    1
    36    11    34    1
    37    14    35    1
    38    17    36    1
    39    18    37    1
@<TRIPOS>SUBSTRUCTURE
     1 RES1        1 GROUP             0 ****  ****    0  
@<TRIPOS>MOLECULE
2XMY:A:CDK500
   100   104     1     0     0
SMALL
NO_CHARGES
****
Generated from the CSD

@<TRIPOS>ATOM
     1 C1      23.8880   4.7709  63.2057   C.3       1 RES1   0.0000
     2 C2      24.7290   5.8018  62.4507   C.2       1 RES1   0.0000
     3 N3      24.2370   6.5588  61.4567   N.am      1 RES1   0.0000
     4 C4      22.8300   6.4708  61.0067   C.3       1 RES1   0.0000
     5 C5      25.1120   7.4108  60.9037   C.2       1 RES1   0.0000
     6 O6      24.8620   8.2048  59.9997   O.2       1 RES1   0.0000
     7 S7      26.6220   7.2648  61.6767   S.3       1 RES1   0.0000
     8 C8      26.0690   6.0708  62.7487   C.2       1 RES1   0.0000
     9 C9      26.8740   5.4268  63.6837   C.2       1 RES1   0.0000
    10 N10     27.8830   6.0798  64.2887   N.2       1 RES1   0.0000
    11 C11     26.6590   4.0779  63.9407   C.2       1 RES1   0.0000
    12 C12     27.4880   3.4259  64.8386   C.2       1 RES1   0.0000
    13 N13     28.4730   4.0979  65.4066   N.2       1 RES1   0.0000
    14 C14     28.6840   5.3908  65.1276   C.2       1 RES1   0.0000
    15 N15     29.6870   5.9408  65.7936   N.pl3     1 RES1   0.0000
    16 C16     30.2930   7.0848  65.5176   C.2       1 RES1   0.0000
    17 C17     31.2260   7.4918  66.4626   C.2       1 RES1   0.0000
    18 C18     31.9650   8.6487  66.2956   C.2       1 RES1   0.0000
    19 C19     30.0950   7.8248  64.3597   C.2       1 RES1   0.0000
    20 C20     30.8470   8.9867  64.1747   C.2       1 RES1   0.0000
    21 C21     31.7680   9.3947  65.1426   C.2       1 RES1   0.0000
    22 S22     32.7620  10.8207  64.9596   S.o2      1 RES1   0.0000
    23 O23     33.9080  10.4737  64.0547   O.2       1 RES1   0.0000
    24 O24     33.3420  11.1687  66.3106   O.2       1 RES1   0.0000
    25 N25     31.9180  12.0896  64.3497   N.pl3     1 RES1   0.0000
    26 C26     32.7740  13.2896  64.3007   C.3       1 RES1   0.0000
    27 C27     32.6580  14.1136  65.5906   C.3       1 RES1   0.0000
    28 O28     33.8040  13.9726  66.4686   O.3       1 RES1   0.0000
    29 C29     34.1580  15.2446  67.0056   C.3       1 RES1   0.0000
    30 C30     24.1630   4.4849  62.1557   C.3       1 RES1   0.0000
    31 C31     24.7300   5.9108  62.2027   C.2       1 RES1   0.0000
    32 N32     24.1590   6.9368  61.5447   N.am      1 RES1   0.0000
    33 C33     22.9260   6.7738  60.7467   C.3       1 RES1   0.0000
    34 C34     24.7780   8.1218  61.6657   C.2       1 RES1   0.0000
    35 O35     24.4230   9.1777  61.1377   O.2       1 RES1   0.0000
    36 S36     26.1570   7.9338  62.6567   S.3       1 RES1   0.0000
    37 C37     25.8940   6.2688  62.8977   C.2       1 RES1   0.0000
    38 C38     26.7000   5.4378  63.6737   C.2       1 RES1   0.0000
    39 N39     27.7750   5.9308  64.3157   N.2       1 RES1   0.0000
    40 C40     26.3790   4.0919  63.7987   C.2       1 RES1   0.0000
    41 C41     27.1920   3.2789  64.5716   C.2       1 RES1   0.0000
    42 N42     28.2400   3.8049  65.1776   N.2       1 RES1   0.0000
    43 C43     28.5490   5.1029  65.0446   C.2       1 RES1   0.0000
    44 N44     29.6220   5.5148  65.7096   N.pl3     1 RES1   0.0000
    45 C45     30.2430   6.6738  65.5266   C.2       1 RES1   0.0000
    46 C46     31.1850   7.0248  66.4856   C.2       1 RES1   0.0000
    47 C47     31.9050   8.2028  66.3836   C.2       1 RES1   0.0000
    48 C48     30.0170   7.5058  64.4376   C.2       1 RES1   0.0000
    49 C49     30.7460   8.6887  64.3227   C.2       1 RES1   0.0000
    50 C50     31.6830   9.0307  65.2956   C.2       1 RES1   0.0000
    51 S51     32.6420  10.4847  65.2136   S.o2      1 RES1   0.0000
    52 O52     33.6790  10.3367  64.1377   O.2       1 RES1   0.0000
    53 O53     33.3570  10.6047  66.5396   O.2       1 RES1   0.0000
    54 N54     31.6870  11.8117  64.9426   N.pl3     1 RES1   0.0000
    55 C55     31.6560  12.2846  63.5457   C.3       1 RES1   0.0000
    56 C56     31.3810  13.7996  63.4977   C.3       1 RES1   0.0000
    57 O57     30.0050  14.1916  63.7087   O.3       1 RES1   0.0000
    58 C58     29.5150  14.9436  62.5937   C.3       1 RES1   0.0000
    59 H1      30.5827   9.3469  63.4706   H         1 RES1   0.0000
    60 H2      29.2794   7.2375  63.6827   H         1 RES1   0.0000
    61 H3      32.6337   8.4740  67.1460   H         1 RES1   0.0000
    62 H4      31.3599   6.3621  67.3318   H         1 RES1   0.0000
    63 H5      29.9988   4.8917  66.4167   H         1 RES1   0.0000
    64 H6      29.5728  14.3355  61.6922   H         1 RES1   0.0000
    65 H7      28.4793  15.2275  62.7743   H         1 RES1   0.0000
    66 H8      30.1201  15.8400  62.4663   H         1 RES1   0.0000
    67 H9      26.9690   2.2183  64.6779   H         1 RES1   0.0000
    68 H10     25.5030   3.6828  63.2975   H         1 RES1   0.0000
    69 H11     22.1206   6.4232  61.3905   H         1 RES1   0.0000
    70 H12     22.6489   7.7308  60.3072   H         1 RES1   0.0000
    71 H13     23.0998   6.0472  59.9544   H         1 RES1   0.0000
    72 H14     24.1533   4.1319  61.1256   H         1 RES1   0.0000
    73 H15     24.7860   3.8265  62.7593   H         1 RES1   0.0000
    74 H16     23.1475   4.4849  62.5489   H         1 RES1   0.0000
    75 H17     33.3182  15.6467  67.5704   H         1 RES1   0.0000
    76 H18     35.0184  15.1340  67.6639   H         1 RES1   0.0000
    77 H19     34.4078  15.9250  66.1928   H         1 RES1   0.0000
    78 H20     31.7687  13.7891  66.1288   H         1 RES1   0.0000
    79 H21     32.5564  15.1639  65.3214   H         1 RES1   0.0000
    80 H22     32.4699  13.9075  63.4571   H         1 RES1   0.0000
    81 H23     33.8100  12.9807  64.1696   H         1 RES1   0.0000
    82 H24     30.9489  12.0536  64.0501   H         1 RES1   0.0000
    83 H25     31.1621  12.2656  65.6833   H         1 RES1   0.0000
    84 H26     30.7147   9.5785  63.2702   H         1 RES1   0.0000
    85 H27     30.8687  11.7597  63.0066   H         1 RES1   0.0000
    86 H28     32.6168  12.0792  63.0759   H         1 RES1   0.0000
    87 H29     31.6871  14.1649  62.5185   H         1 RES1   0.0000
    88 H30     31.9867  14.2747  64.2680   H         1 RES1   0.0000
    89 H31     27.3299   2.3742  65.0729   H         1 RES1   0.0000
    90 H32     30.0278   5.4309  66.6023   H         1 RES1   0.0000
    91 H33     29.3696   7.5063  63.6126   H         1 RES1   0.0000
    92 H34     31.3790   6.8865  67.3548   H         1 RES1   0.0000
    93 H35     32.6834   8.9661  67.0500   H         1 RES1   0.0000
    94 H36     23.5152   4.0241  62.5062   H         1 RES1   0.0000
    95 H37     24.5025   4.2849  63.9621   H         1 RES1   0.0000
    96 H38     23.0477   5.2697  63.6862   H         1 RES1   0.0000
    97 H39     22.1676   6.7116  61.8369   H         1 RES1   0.0000
    98 H40     22.6641   7.1760  60.1936   H         1 RES1   0.0000
    99 H41     22.6228   5.4600  60.6584   H         1 RES1   0.0000
   100 H42     25.8515   3.5421  63.4440   H         1 RES1   0.0000
@<TRIPOS>BOND
     1     1     2    1
     2     2     3    1
     3     2     8    2
     4     3     4    1
     5     3     5   am
     6     5     6    2
     7     5     7    1
     8     7     8    1
     9     8     9    1
    10     9    10    2
    11     9    11    1
    12    10    14    1
    13    11    12    2
    14    12    13    1
    15    13    14    2
    16    14    15    1
    17    15    16    1
    18    16    17    2
    19    16    19    1
    20    17    18    1
    21    18    21    2
    22    19    20    2
    23    20    21    1
    24    21    22    1
    25    22    23    2
    26    22    24    2
    27    22    25    1
    28    25    26    1
    29    26    27    1
    30    27    28    1
    31    28    29    1
    32    30    31    1
    33    31    32    1
    34    31    37    2
    35    32    33    1
    36    32    34   am
    37    34    35    2
    38    34    36    1
    39    36    37    1
    40    37    38    1
    41    38    39    2
    42    38    40    1
    43    39    43    1
    44    40    41    2
    45    41    42    1
    46    42    43    2
    47    43    44    1
    48    44    45    1
    49    45    46    2
    50    45    48    1
    51    46    47    1
    52    47    50    2
    53    48    49    2
    54    49    50    1
    55    50    51    1
    56    51    52    2
    57    51    53    2
    58    51    54    1
    59    54    55    1
    60    55    56    1
    61    56    57    1
    62    57    58    1
    63    49    59    1
    64    48    60    1
    65    47    61    1
    66    46    62    1
    67    44    63    1
    68    58    64    1
    69    58    65    1
    70    58    66    1
    71    41    67    1
    72    40    68    1
    73    33    69    1
    74    33    70    1
    75    33    71    1
    76    30    72    1
    77    30    73    1
    78    30    74    1
    79    29    75    1
    80    29    76    1
    81    29    77    1
    82    27    78    1
    83    27    79    1
    84    26    80    1
    85    26    81    1
    86    25    82    1
    87    54    83    1
    88    20    84    1
    89    55    85    1
    90    55    86    1
    91    56    87    1
    92    56    88    1
    93    12    89    1
    94    15    90    1
    95    19    91    1
    96    17    92    1
    97    18    93    1
    98     1    94    1
    99     1    95    1
   100     1    96    1
   101     4    97    1
   102     4    98    1
   103     4    99    1
   104    11   100    1
@<TRIPOS>SUBSTRUCTURE
     1 RES1        1 GROUP             0 ****  ****    0  
@<TRIPOS>MOLECULE
1KE7:A:LS3299
    43    47     1     0     0
SMALL
NO_CHARGES
****
Generated from the CSD

@<TRIPOS>ATOM
     1 O1      28.4724   3.5110  65.6847   O.2       1 RES1   0.0000
     2 C2      27.6164   3.9951  64.9607   C.2       1 RES1   0.0000
     3 N3      26.5194   3.3440  64.4417   N.am      1 RES1   0.0000
     4 C4      25.8303   4.1791  63.6027   C.2       1 RES1   0.0000
     5 C5      24.5983   3.9601  62.8046   C.2       1 RES1   0.0000
     6 C6      24.1113   5.0651  61.9236   C.2       1 RES1   0.0000
     7 C7      24.8853   6.3481  61.7686   C.2       1 RES1   0.0000
     8 C8      24.4283   7.4041  60.8756   C.2       1 RES1   0.0000
     9 O9      23.1063   7.6241  60.5806   O.3       1 RES1   0.0000
    10 C10     23.0803   8.8171  59.9036   C.2       1 RES1   0.0000
    11 N11     24.3243   9.2311  59.5745   N.2       1 RES1   0.0000
    12 C12     25.1963   8.3901  60.1706   C.2       1 RES1   0.0000
    13 C13     26.1134   6.5091  62.6096   C.2       1 RES1   0.0000
    14 C14     26.5384   5.4461  63.5467   C.2       1 RES1   0.0000
    15 C15     27.6324   5.4161  64.4967   C.2       1 RES1   0.0000
    16 C16     28.4304   6.4371  64.8857   C.2       1 RES1   0.0000
    17 N17     29.7034   6.4621  65.6407   N.pl3     1 RES1   0.0000
    18 C18     30.5334   7.5501  65.7827   C.2       1 RES1   0.0000
    19 C19     30.9154   8.4591  64.6517   C.2       1 RES1   0.0000
    20 C20     31.7984   9.5971  64.9047   C.2       1 RES1   0.0000
    21 C21     32.2474  10.6031  63.9177   C.3       1 RES1   0.0000
    22 S22     33.7945  11.3022  64.4707   S.o2      1 RES1   0.0000
    23 O23     33.8665  12.7142  64.2027   O.2       1 RES1   0.0000
    24 O24     34.8275  10.4171  64.0137   O.2       1 RES1   0.0000
    25 C25     33.3834  10.9252  66.1937   C.3       1 RES1   0.0000
    26 C26     32.3824   9.8181  66.2357   C.2       1 RES1   0.0000
    27 C27     31.9974   8.9611  67.3818   C.2       1 RES1   0.0000
    28 C28     31.0844   7.8171  67.1427   C.2       1 RES1   0.0000
    29 H1      30.8129   7.1638  67.9706   H         1 RES1   0.0000
    30 H2      32.3779   9.1676  68.3811   H         1 RES1   0.0000
    31 H3      31.5000  11.3905  63.8319   H         1 RES1   0.0000
    32 H4      32.3866  10.1275  62.9480   H         1 RES1   0.0000
    33 H5      32.9651  11.8111  66.6693   H         1 RES1   0.0000
    34 H6      34.2846  10.6201  66.7235   H         1 RES1   0.0000
    35 H7      29.9893   5.6001  66.0939   H         1 RES1   0.0000
    36 H8      26.7023   7.4217  62.5304   H         1 RES1   0.0000
    37 H9      26.2827   8.4492  60.1248   H         1 RES1   0.0000
    38 H10     30.5371   8.2724  63.6477   H         1 RES1   0.0000
    39 H11     22.1698   9.3632  59.6613   H         1 RES1   0.0000
    40 H12     28.0701   7.4210  64.5889   H         1 RES1   0.0000
    41 H13     24.0607   3.0147  62.8597   H         1 RES1   0.0000
    42 H14     23.1753   4.9397  61.3813   H         1 RES1   0.0000
    43 H15     26.2595   2.3853  64.6504   H         1 RES1   0.0000
@<TRIPOS>BOND
     1     1     2    2
     2     2     3   am
     3     2    15    1
     4     3     4    1
     5     4     5    2
     6     4    14    1
     7     5     6    1
     8     6     7    2
     9     7     8    1
    10     7    13    1
    11     8     9    1
    12     8    12    2
    13     9    10    1
    14    10    11    2
    15    11    12    1
    16    13    14    2
    17    14    15    1
    18    15    16    2
    19    16    17    1
    20    17    18    1
    21    18    19    2
    22    18    28    1
    23    19    20    1
    24    20    21    1
    25    20    26    2
    26    21    22    1
    27    22    23    2
    28    22    24    2
    29    22    25    1
    30    25    26    1
    31    26    27    1
    32    27    28    2
    33    28    29    1
    34    27    30    1
    35    21    31    1
    36    21    32    1
    37    25    33    1
    38    25    34    1
    39    17    35    1
    40    13    36    1
    41    12    37    1
    42    19    38    1
    43    10    39    1
    44    16    40    1
    45     5    41    1
    46     6    42    1
    47     3    43    1
@<TRIPOS>SUBSTRUCTURE
     1 RES1        1 GROUP             0 ****  ****    0  
@<TRIPOS>MOLECULE
3QZI:A:X72512
    31    32     1     0     0
SMALL
USER_CHARGES
****
Generated from the CSD

@<TRIPOS>ATOM
     1 N1      29.4634   6.3909  64.9808   N.pl3     1 RES1   0.0000
     2 N2      26.8274   3.2910  64.5878   N.am      1 RES1   0.0000
     3 N3      31.8653  10.4019  66.1597   N.2       1 RES1   0.0000
     4 N4      31.1144   8.9139  67.9047   N.2       1 RES1   0.0000
     5 N5      24.3335   7.4269  63.2708   N.pl3     1 RES1   1.0000
     6 C6      25.9105   5.9170  64.1468   C.2       1 RES1   0.0000
     7 C7      27.2404   5.6210  64.6058   C.2       1 RES1   0.0000
     8 C8      28.2434   6.6459  64.5798   C.2       1 RES1   0.0000
     9 C9      27.8854   7.9499  64.1178   C.2       1 RES1   0.0000
    10 C10     26.5735   8.2419  63.6778   C.2       1 RES1   0.0000
    11 C11     25.5545   7.2139  63.6738   C.2       1 RES1   0.0000
    12 C12     27.5124   4.3540  65.0688   C.2       1 RES1   0.0000
    13 C13     30.6504   7.1629  64.5368   C.3       1 RES1   0.0000
    14 C14     31.0024   8.1979  65.5757   C.2       1 RES1   0.0000
    15 C15     31.5414   9.4399  65.2407   C.2       1 RES1   0.0000
    16 C16     31.6343  10.0899  67.4627   C.2       1 RES1   0.0000
    17 C17     30.8114   7.9939  66.9477   C.2       1 RES1   0.0000
    18 O18     28.3294   4.1820  65.9627   O.2       1 RES1   0.0000
    19 O19     24.0365   8.4279  62.4828   O.3       1 RES1  -1.0000
    20 O20     23.3535   6.6089  63.6048   O.2       1 RES1   0.0000
    21 Cl21    26.2645   9.8499  63.1718   Cl        1 RES1   0.0000
    22 H1      31.8853  10.8405  68.2107   H         1 RES1   0.0000
    23 H2      30.3948   7.0405  67.2693   H         1 RES1   0.0000
    24 H3      31.7146   9.6570  64.1877   H         1 RES1   0.0000
    25 H4      30.4274   7.6587  63.5932   H         1 RES1   0.0000
    26 H5      31.4923   6.4857  64.4009   H         1 RES1   0.0000
    27 H6      25.1566   5.1313  64.1608   H         1 RES1   0.0000
    28 H7      28.6391   8.7358  64.1043   H         1 RES1   0.0000
    29 H8      27.0311   2.3581  64.9319   H         1 RES1   0.0000
    30 H9      26.1099   3.4264  63.8828   H         1 RES1   0.0000
    31 H10     29.6049   5.6239  65.6303   H         1 RES1   0.0000
@<TRIPOS>BOND
     1     1     8    1
     2     1    13    1
     3     2    12   am
     4     3    15    2
     5     3    16    1
     6     4    16    2
     7     4    17    1
     8     5    11    1
     9     5    19    1
    10     5    20    2
    11     6     7    2
    12     6    11    1
    13     7     8    1
    14     7    12    1
    15     8     9    2
    16     9    10    1
    17    10    11    2
    18    10    21    1
    19    12    18    2
    20    13    14    1
    21    14    15    1
    22    14    17    2
    23    16    22    1
    24    17    23    1
    25    15    24    1
    26    13    25    1
    27    13    26    1
    28     6    27    1
    29     9    28    1
    30     2    29    1
    31     2    30    1
    32     1    31    1
@<TRIPOS>SUBSTRUCTURE
     1 RES1        1 GROUP             0 ****  ****    0  
@<TRIPOS>MOLECULE
1KE8:A:LS4299
    41    44     1     0     0
SMALL
NO_CHARGES
****
Generated from the CSD

@<TRIPOS>ATOM
     1 O1      28.4072   3.9679  65.6076   O.2       1 RES1   0.0000
     2 C2      27.5042   4.2089  64.8026   C.2       1 RES1   0.0000
     3 N3      26.5722   3.3459  64.3286   N.am      1 RES1   0.0000
     4 C4      25.7533   3.9889  63.4306   C.2       1 RES1   0.0000
     5 C5      24.6043   3.4639  62.6646   C.2       1 RES1   0.0000
     6 C6      23.8143   4.3969  61.8106   C.2       1 RES1   0.0000
     7 C7      24.1933   5.8349  61.7096   C.2       1 RES1   0.0000
     8 C8      25.3793   6.3459  62.4546   C.2       1 RES1   0.0000
     9 C9      26.1442   5.3919  63.3126   C.2       1 RES1   0.0000
    10 C10     27.3062   5.5679  64.1496   C.2       1 RES1   0.0000
    11 C11     28.0802   6.6529  64.3256   C.2       1 RES1   0.0000
    12 N12     29.3872   6.6379  65.0266   N.pl3     1 RES1   0.0000
    13 C13     30.3311   7.6029  64.9776   C.2       1 RES1   0.0000
    14 C14     30.5141   8.5829  63.8446   C.2       1 RES1   0.0000
    15 C15     31.5531   9.5928  63.9166   C.2       1 RES1   0.0000
    16 C16     32.4671   9.6178  65.0836   C.2       1 RES1   0.0000
    17 C17     32.2941   8.6739  66.2096   C.2       1 RES1   0.0000
    18 C18     31.2241   7.6619  66.1526   C.2       1 RES1   0.0000
    19 S19     33.7290  10.8638  65.1226   S.o2      1 RES1   0.0000
    20 O20     34.6460  10.6368  66.2026   O.2       1 RES1   0.0000
    21 O21     34.2610  10.8928  63.7976   O.2       1 RES1   0.0000
    22 N22     32.9720  12.3258  65.4256   N.pl3     1 RES1   0.0000
    23 C23     32.3091  12.6638  66.7316   C.2       1 RES1   0.0000
    24 S24     30.9431  13.6678  66.8466   S.3       1 RES1   0.0000
    25 C25     30.8091  13.4658  68.5245   C.2       1 RES1   0.0000
    26 C26     31.8851  12.6968  69.0005   C.2       1 RES1   0.0000
    27 N27     32.6881  12.2478  67.9775   N.2       1 RES1   0.0000
    28 H1      30.0087  13.8714  69.1416   H         1 RES1   0.0000
    29 H2      32.9600  13.0220  64.6871   H         1 RES1   0.0000
    30 H3      32.0620  12.4820  70.0533   H         1 RES1   0.0000
    31 H4      31.0923   6.9597  66.9745   H         1 RES1   0.0000
    32 H5      32.9531   8.7265  67.0750   H         1 RES1   0.0000
    33 H6      31.6608  10.3269  63.1195   H         1 RES1   0.0000
    34 H7      29.8652   8.5319  62.9716   H         1 RES1   0.0000
    35 H8      27.7252   7.6027  63.9284   H         1 RES1   0.0000
    36 H9      29.5920   5.8244  65.5980   H         1 RES1   0.0000
    37 H10     25.6807   7.3894  62.3752   H         1 RES1   0.0000
    38 H11     26.4911   2.3703  64.5967   H         1 RES1   0.0000
    39 H12     23.6044   6.5116  61.0922   H         1 RES1   0.0000
    40 H13     22.9539   4.0247  61.2565   H         1 RES1   0.0000
    41 H14     24.3378   2.4096  62.7228   H         1 RES1   0.0000
@<TRIPOS>BOND
     1     1     2    2
     2     2     3   am
     3     2    10    1
     4     3     4    1
     5     4     5    2
     6     4     9    1
     7     5     6    1
     8     6     7    2
     9     7     8    1
    10     8     9    2
    11     9    10    1
    12    10    11    2
    13    11    12    1
    14    12    13    1
    15    13    14    2
    16    13    18    1
    17    14    15    1
    18    15    16    2
    19    16    17    1
    20    16    19    1
    21    17    18    2
    22    19    20    2
    23    19    21    2
    24    19    22    1
    25    22    23    1
    26    23    24    1
    27    23    27    2
    28    24    25    1
    29    25    26    2
    30    26    27    1
    31    25    28    1
    32    22    29    1
    33    26    30    1
    34    18    31    1
    35    17    32    1
    36    15    33    1
    37    14    34    1
    38    11    35    1
    39    12    36    1
    40     8    37    1
    41     3    38    1
    42     7    39    1
    43     6    40    1
    44     5    41    1
@<TRIPOS>SUBSTRUCTURE
     1 RES1        1 GROUP             0 ****  ****    0  
@<TRIPOS>MOLECULE
1W0X:C:OLO1299
    40    42     1     0     0
SMALL
NO_CHARGES
****
Generated from the CSD

@<TRIPOS>ATOM
     1 N1      26.6807   4.2821  64.3841   N.pl3     1 RES1   0.0000
     2 C2      27.4827   3.3701  65.0841   C.2       1 RES1   0.0000
     3 N3      28.6297   3.9071  65.4891   N.2       1 RES1   0.0000
     4 C4      28.5927   5.2222  65.0021   C.2       1 RES1   0.0000
     5 C5      27.4077   5.4632  64.3641   C.2       1 RES1   0.0000
     6 C6      29.4928   6.3042  65.0301   C.2       1 RES1   0.0000
     7 N7      29.1818   7.3922  64.3561   N.2       1 RES1   0.0000
     8 C8      27.9887   7.6352  63.8031   C.2       1 RES1   0.0000
     9 N9      27.0247   6.6782  63.8111   N.2       1 RES1   0.0000
    10 C10     25.3227   4.0661  63.7181   C.3       1 RES1   0.0000
    11 N11     27.7687   8.8383  63.0721   N.pl3     1 RES1   0.0000
    12 C12     28.9548   9.7233  62.7171   C.3       1 RES1   0.0000
    13 C13     29.1018  10.4003  61.3111   C.3       1 RES1   0.0000
    14 O14     29.1558  11.8273  61.5631   O.3       1 RES1   0.0000
    15 N15     30.6588   6.3192  65.7261   N.pl3     1 RES1   0.0000
    16 C16     31.6858   7.3222  65.3711   C.3       1 RES1   0.0000
    17 C17     31.3448   9.7173  65.7041   C.2       1 RES1   0.0000
    18 C18     31.4098  10.8953  66.5051   C.2       1 RES1   0.0000
    19 C19     31.7858  10.7493  67.8311   C.2       1 RES1   0.0000
    20 C20     32.0798   9.4303  68.3471   C.2       1 RES1   0.0000
    21 C21     32.0018   8.3002  67.5271   C.2       1 RES1   0.0000
    22 C22     31.6538   8.4582  66.2441   C.2       1 RES1   0.0000
    23 H1      32.2201   7.3102  67.9248   H         1 RES1   0.0000
    24 H2      32.3666   9.3155  69.3914   H         1 RES1   0.0000
    25 H3      31.8593  11.6210  68.4796   H         1 RES1   0.0000
    26 H4      31.1727  11.8738  66.0901   H         1 RES1   0.0000
    27 H5      31.0512   9.7952  64.6583   H         1 RES1   0.0000
    28 H6      31.5101   7.6586  64.3504   H         1 RES1   0.0000
    29 H7      32.6683   6.8570  65.4360   H         1 RES1   0.0000
    30 H8      30.8223   5.6546  66.4757   H         1 RES1   0.0000
    31 H9      29.9346  12.0315  62.1443   H         1 RES1   0.0000
    32 H10     28.2461  10.1584  60.6825   H         1 RES1   0.0000
    33 H11     30.0165  10.0665  60.8233   H         1 RES1   0.0000
    34 H12     29.8435   9.1087  62.8526   H         1 RES1   0.0000
    35 H13     28.9586  10.5326  63.4457   H         1 RES1   0.0000
    36 H14     26.8299   9.1026  62.7908   H         1 RES1   0.0000
    37 H15     24.5983   3.7469  64.4659   H         1 RES1   0.0000
    38 H16     24.9889   4.9978  63.2638   H         1 RES1   0.0000
    39 H17     25.4130   3.2996  62.9498   H         1 RES1   0.0000
    40 H18     27.1980   2.3365  65.2750   H         1 RES1   0.0000
@<TRIPOS>BOND
     1     1     2    1
     2     1     5    1
     3     1    10    1
     4     2     3    2
     5     3     4    1
     6     4     5    2
     7     4     6    1
     8     5     9    1
     9     6     7    2
    10     6    15    1
    11     7     8    1
    12     8     9    2
    13     8    11    1
    14    11    12    1
    15    12    13    1
    16    13    14    1
    17    15    16    1
    18    16    22    1
    19    17    18    2
    20    17    22    1
    21    18    19    1
    22    19    20    2
    23    20    21    1
    24    21    22    2
    25    21    23    1
    26    20    24    1
    27    19    25    1
    28    18    26    1
    29    17    27    1
    30    16    28    1
    31    16    29    1
    32    15    30    1
    33    14    31    1
    34    13    32    1
    35    13    33    1
    36    12    34    1
    37    12    35    1
    38    11    36    1
    39    10    37    1
    40    10    38    1
    41    10    39    1
    42     2    40    1
@<TRIPOS>SUBSTRUCTURE
     1 RES1        1 GROUP             0 ****  ****    0  
@<TRIPOS>MOLECULE
3QZH:A:X69839
    36    37     1     0     0
SMALL
USER_CHARGES
****
Generated from the CSD

@<TRIPOS>ATOM
     1 N1      29.5719   6.4412  64.9449   N.pl3     1 RES1   0.0000
     2 N2      26.9109   3.3121  64.6799   N.am      1 RES1   0.0000
     3 N3      31.3069   9.0073  67.9760   N.2       1 RES1   0.0000
     4 N4      24.4489   7.3282  63.1528   N.pl3     1 RES1   1.0000
     5 C5      26.0309   5.8852  64.1179   C.2       1 RES1   0.0000
     6 C6      27.3569   5.6332  64.5899   C.2       1 RES1   0.0000
     7 C7      28.3539   6.6682  64.5129   C.2       1 RES1   0.0000
     8 C8      27.9749   7.9432  63.9569   C.2       1 RES1   0.0000
     9 C9      26.6469   8.1892  63.4899   C.2       1 RES1   0.0000
    10 C10     25.6579   7.1472  63.5689   C.2       1 RES1   0.0000
    11 C11     27.6359   4.3941  65.1009   C.2       1 RES1   0.0000
    12 C12     30.7609   7.2672  64.5969   C.3       1 RES1   0.0000
    13 C13     30.9949   8.3473  65.6349   C.2       1 RES1   0.0000
    14 C14     31.0989   8.0462  67.0080   C.2       1 RES1   0.0000
    15 C15     31.4159  10.3183  67.5700   C.2       1 RES1   0.0000
    16 C16     31.3259  10.7183  66.2269   C.2       1 RES1   0.0000
    17 C17     31.1119   9.7093  65.2529   C.2       1 RES1   0.0000
    18 C18     26.1159  10.5413  63.7829   C.3       1 RES1   0.0000
    19 O19     28.5169   4.2361  65.9159   O.2       1 RES1   0.0000
    20 O20     24.1749   8.2593  62.2758   O.3       1 RES1  -1.0000
    21 O21     23.4589   6.5632  63.5869   O.2       1 RES1   0.0000
    22 O22     26.3279   9.4133  62.9658   O.3       1 RES1   0.0000
    23 H1      31.0366   9.9825  64.2014   H         1 RES1   0.0000
    24 H2      31.4171  11.7657  65.9431   H         1 RES1   0.0000
    25 H3      27.0183  10.7492  64.3560   H         1 RES1   0.0000
    26 H4      25.8757  11.4012  63.1594   H         1 RES1   0.0000
    27 H5      25.2898  10.3454  64.4649   H         1 RES1   0.0000
    28 H6      31.5800  11.0829  68.3279   H         1 RES1   0.0000
    29 H7      31.0110   7.0064  67.3194   H         1 RES1   0.0000
    30 H8      30.5982   7.7347  63.6269   H         1 RES1   0.0000
    31 H9      31.6388   6.6247  64.5474   H         1 RES1   0.0000
    32 H10     28.7176   8.7370  63.8913   H         1 RES1   0.0000
    33 H11     29.7136   5.6462  65.5599   H         1 RES1   0.0000
    34 H12     27.1116   2.3901  65.0539   H         1 RES1   0.0000
    35 H13     26.1726   3.4318  63.9937   H         1 RES1   0.0000
    36 H14     25.2865   5.0927  64.1793   H         1 RES1   0.0000
@<TRIPOS>BOND
     1     1     7    1
     2     1    12    1
     3     2    11   am
     4     3    14    2
     5     3    15    1
     6     4    10    1
     7     4    20    1
     8     4    21    2
     9     5     6    2
    10     5    10    1
    11     6     7    1
    12     6    11    1
    13     7     8    2
    14     8     9    1
    15     9    10    2
    16     9    22    1
    17    11    19    2
    18    12    13    1
    19    13    14    1
    20    13    17    2
    21    15    16    2
    22    16    17    1
    23    18    22    1
    24    17    23    1
    25    16    24    1
    26    18    25    1
    27    18    26    1
    28    18    27    1
    29    15    28    1
    30    14    29    1
    31    12    30    1
    32    12    31    1
    33     8    32    1
    34     1    33    1
    35     2    34    1
    36     2    35    1
    37     5    36    1
@<TRIPOS>SUBSTRUCTURE
     1 RES1        1 GROUP             0 ****  ****    0  
@<TRIPOS>MOLECULE
1KE5:A:LS1299
    38    40     1     0     0
SMALL
NO_CHARGES
****
Generated from the CSD

@<TRIPOS>ATOM
     1 N1      26.5419   3.3180  64.4561   N.am      1 RES1   0.0000
     2 C2      27.5179   4.1721  64.8571   C.2       1 RES1   0.0000
     3 C3      27.2909   5.5051  64.2061   C.2       1 RES1   0.0000
     4 C4      25.4019   6.2561  62.4611   C.2       1 RES1   0.0000
     5 C5      24.2139   5.7431  61.7251   C.2       1 RES1   0.0000
     6 C6      23.7709   4.3421  61.9271   C.2       1 RES1   0.0000
     7 C7      24.5409   3.4270  62.8221   C.2       1 RES1   0.0000
     8 C8      25.7069   3.9471  63.5611   C.2       1 RES1   0.0000
     9 C9      26.1289   5.3261  63.3801   C.2       1 RES1   0.0000
    10 O10     28.4879   3.9231  65.5861   O.2       1 RES1   0.0000
    11 C11     28.0629   6.5901  64.3241   C.2       1 RES1   0.0000
    12 N12     29.3499   6.6021  65.0361   N.pl3     1 RES1   0.0000
    13 C13     30.2459   7.6121  65.0191   C.2       1 RES1   0.0000
    14 C14     30.3889   8.6161  63.9091   C.2       1 RES1   0.0000
    15 C15     31.3799   9.6651  64.0021   C.2       1 RES1   0.0000
    16 C16     32.2389   9.7471  65.1891   C.2       1 RES1   0.0000
    17 C17     32.1349   8.7501  66.2861   C.2       1 RES1   0.0000
    18 C18     31.1309   7.6811  66.2011   C.2       1 RES1   0.0000
    19 S19     33.5808  10.8781  65.1431   S.o2      1 RES1   0.0000
    20 O20     34.4768  10.4281  64.1301   O.2       1 RES1   0.0000
    21 O21     34.0988  11.0171  66.4711   O.2       1 RES1   0.0000
    22 N22     33.0209  12.3852  64.7721   N.pl3     1 RES1   0.0000
    23 C23     32.3259  12.8372  63.5751   C.3       1 RES1   0.0000
    24 H1      31.4881  10.3897  63.1964   H         1 RES1   0.0000
    25 H2      32.7986   8.8115  67.1473   H         1 RES1   0.0000
    26 H3      29.7448   8.5532  63.0332   H         1 RES1   0.0000
    27 H4      31.0396   6.9472  67.0005   H         1 RES1   0.0000
    28 H5      29.5842   5.7821  65.5865   H         1 RES1   0.0000
    29 H6      27.7196   7.5172  63.8674   H         1 RES1   0.0000
    30 H7      24.2440   2.3846  62.9282   H         1 RES1   0.0000
    31 H8      22.8786   3.9783  61.4197   H         1 RES1   0.0000
    32 H9      23.6720   6.3942  61.0408   H         1 RES1   0.0000
    33 H10     25.7343   7.2852  62.3334   H         1 RES1   0.0000
    34 H11     26.4427   2.3578  64.7698   H         1 RES1   0.0000
    35 H12     33.1838  13.0970  65.4771   H         1 RES1   0.0000
    36 H13     31.3980  12.2787  63.4614   H         1 RES1   0.0000
    37 H14     32.1018  13.8991  63.6647   H         1 RES1   0.0000
    38 H15     32.9582  12.6719  62.7040   H         1 RES1   0.0000
@<TRIPOS>BOND
     1     1     2   am
     2     1     8    1
     3     2     3    1
     4     2    10    2
     5     3     9    1
     6     3    11    2
     7     4     5    1
     8     4     9    2
     9     5     6    2
    10     6     7    1
    11     7     8    2
    12     8     9    1
    13    11    12    1
    14    12    13    1
    15    13    14    2
    16    13    18    1
    17    14    15    1
    18    15    16    2
    19    16    17    1
    20    16    19    1
    21    17    18    2
    22    19    20    2
    23    19    21    2
    24    19    22    1
    25    22    23    1
    26    15    24    1
    27    17    25    1
    28    14    26    1
    29    18    27    1
    30    12    28    1
    31    11    29    1
    32     7    30    1
    33     6    31    1
    34     5    32    1
    35     4    33    1
    36     1    34    1
    37    22    35    1
    38    23    36    1
    39    23    37    1
    40    23    38    1
@<TRIPOS>SUBSTRUCTURE
     1 RES1        1 GROUP             0 ****  ****    0  
@<TRIPOS>MOLECULE
3RM6:A:18Z478
    55    57     1     0     0
SMALL
USER_CHARGES
****
Generated from the CSD

@<TRIPOS>ATOM
     1 N1      26.8305   3.3260  64.6257   N.am      1 RES1   0.0000
     2 N2      26.2605   9.4081  62.9437   N.pl3     1 RES1   0.0000
     3 N3      29.4865   6.4611  64.8847   N.pl3     1 RES1   0.0000
     4 N4      31.0955  10.8501  65.6847   N.2       1 RES1   0.0000
     5 N5      31.0015   9.4161  67.6356   N.2       1 RES1   0.0000
     6 N6      31.2115  11.6551  67.7816   N.pl3     1 RES1   0.0000
     7 N7      26.4375  11.1841  59.7678   N.3       1 RES1   0.0000
     8 N8      26.0544  11.9421  57.0188   N.3       1 RES1   0.0000
     9 N9      24.3734   7.4021  63.0567   N.pl3     1 RES1   1.0000
    10 C10     25.9444   5.9351  64.0287   C.2       1 RES1   0.0000
    11 C11     27.2725   5.6671  64.5127   C.2       1 RES1   0.0000
    12 C12     28.2705   6.7021  64.4457   C.2       1 RES1   0.0000
    13 C13     27.8945   7.9881  63.8967   C.2       1 RES1   0.0000
    14 C14     26.5705   8.2461  63.4217   C.2       1 RES1   0.0000
    15 C15     25.5814   7.2071  63.4827   C.2       1 RES1   0.0000
    16 C16     27.5525   4.4160  65.0317   C.2       1 RES1   0.0000
    17 C17     30.7145   7.2301  64.5057   C.3       1 RES1   0.0000
    18 C18     30.8625   8.4331  65.4037   C.2       1 RES1   0.0000
    19 C19     30.9735   9.7341  64.8977   C.2       1 RES1   0.0000
    20 C20     31.1015  10.6361  67.0316   C.2       1 RES1   0.0000
    21 C21     30.8815   8.3391  66.7976   C.2       1 RES1   0.0000
    22 C22     27.0295  10.0481  61.8487   C.3       1 RES1   0.0000
    23 C23     26.1584  11.1231  61.1828   C.3       1 RES1   0.0000
    24 C24     27.2905  12.1881  59.1228   C.3       1 RES1   0.0000
    25 C25     26.5275  12.9131  57.9928   C.3       1 RES1   0.0000
    26 C26     25.1544  11.0061  57.6708   C.3       1 RES1   0.0000
    27 C27     25.9224  10.2471  58.7628   C.3       1 RES1   0.0000
    28 O28     28.4365   4.2620  65.8667   O.2       1 RES1   0.0000
    29 O29     23.3694   6.6971  63.5317   O.3       1 RES1  -1.0000
    30 O30     24.1194   8.2931  62.1197   O.2       1 RES1   0.0000
    31 H1      30.9623   9.8671  63.8169   H         1 RES1   0.0000
    32 H2      30.7957   7.3499  67.2449   H         1 RES1   0.0000
    33 H3      27.3080   9.2966  61.1114   H         1 RES1   0.0000
    34 H4      27.9287  10.5083  62.2556   H         1 RES1   0.0000
    35 H5      25.1078  10.8782  61.3321   H         1 RES1   0.0000
    36 H6      26.3733  12.0907  61.6340   H         1 RES1   0.0000
    37 H7      28.1664  11.6956  58.7031   H         1 RES1   0.0000
    38 H8      27.6062  12.9187  59.8661   H         1 RES1   0.0000
    39 H9      24.7698  10.2991  56.9372   H         1 RES1   0.0000
    40 H10     24.3250  11.5505  58.1199   H         1 RES1   0.0000
    41 H11     28.6400   8.7802  63.8441   H         1 RES1   0.0000
    42 H12     25.6769  13.4464  58.4147   H         1 RES1   0.0000
    43 H13     27.1937  13.6218  57.5031   H         1 RES1   0.0000
    44 H14     25.1940   5.1475  64.0793   H         1 RES1   0.0000
    45 H15     26.8454  11.4377  56.6313   H         1 RES1   0.0000
    46 H16     31.2206  11.5441  68.7905   H         1 RES1   0.0000
    47 H17     31.2903  12.5805  67.3721   H         1 RES1   0.0000
    48 H18     29.6024   5.6899  65.5343   H         1 RES1   0.0000
    49 H19     25.4619   9.8995  63.3323   H         1 RES1   0.0000
    50 H20     27.0378   2.4089  65.0080   H         1 RES1   0.0000
    51 H21     26.0879   3.4350  63.9424   H         1 RES1   0.0000
    52 H22     30.6296   7.5596  63.4712   H         1 RES1   0.0000
    53 H23     31.5890   6.5899  64.6122   H         1 RES1   0.0000
    54 H24     25.2530   9.5358  59.2444   H         1 RES1   0.0000
    55 H25     26.7558   9.7120  58.3100   H         1 RES1   0.0000
@<TRIPOS>BOND
     1     1    16   am
     2     2    14    1
     3     2    22    1
     4     3    12    1
     5     3    17    1
     6     4    19    2
     7     4    20    1
     8     5    20    2
     9     5    21    1
    10     6    20    1
    11     7    23    1
    12     7    24    1
    13     7    27    1
    14     8    25    1
    15     8    26    1
    16     9    15    1
    17     9    29    1
    18     9    30    2
    19    10    11    2
    20    10    15    1
    21    11    12    1
    22    11    16    1
    23    12    13    2
    24    13    14    1
    25    14    15    2
    26    16    28    2
    27    17    18    1
    28    18    19    1
    29    18    21    2
    30    22    23    1
    31    24    25    1
    32    26    27    1
    33    19    31    1
    34    21    32    1
    35    22    33    1
    36    22    34    1
    37    23    35    1
    38    23    36    1
    39    24    37    1
    40    24    38    1
    41    26    39    1
    42    26    40    1
    43    13    41    1
    44    25    42    1
    45    25    43    1
    46    10    44    1
    47     8    45    1
    48     6    46    1
    49     6    47    1
    50     3    48    1
    51     2    49    1
    52     1    50    1
    53     1    51    1
    54    17    52    1
    55    17    53    1
    56    27    54    1
    57    27    55    1
@<TRIPOS>SUBSTRUCTURE
     1 RES1        1 GROUP             0 ****  ****    0  
@<TRIPOS>MOLECULE
1KE6:A:LS2299
    42    45     1     0     0
SMALL
NO_CHARGES
****
Generated from the CSD

@<TRIPOS>ATOM
     1 N1      26.8076   3.4071  64.5844   N.am      1 RES1   0.0000
     2 C2      27.7766   4.2721  65.0134   C.2       1 RES1   0.0000
     3 C3      27.6266   5.5712  64.2974   C.2       1 RES1   0.0000
     4 C4      25.8166   6.3022  62.5114   C.2       1 RES1   0.0000
     5 C5      24.5577   5.8272  61.8214   C.2       1 RES1   0.0000
     6 C6      24.0547   4.4701  62.0564   C.2       1 RES1   0.0000
     7 C7      24.7837   3.5511  62.9794   C.2       1 RES1   0.0000
     8 C8      25.9906   4.0381  63.6864   C.2       1 RES1   0.0000
     9 C9      26.4776   5.3901  63.4474   C.2       1 RES1   0.0000
    10 O10     28.6696   4.0911  65.8424   O.2       1 RES1   0.0000
    11 N11     28.4676   6.7392  64.4704   N.2       1 RES1   0.0000
    12 S12     26.2116   7.8822  62.0274   S.3       1 RES1   0.0000
    13 C13     24.8217   8.0002  61.0394   C.2       1 RES1   0.0000
    14 N14     24.0597   6.8732  61.0364   N.2       1 RES1   0.0000
    15 N15     29.6576   6.7092  64.8574   N.pl3     1 RES1   0.0000
    16 C16     30.4376   7.8022  65.0774   C.2       1 RES1   0.0000
    17 C17     31.2126   7.8422  66.3414   C.2       1 RES1   0.0000
    18 C18     31.9506   9.0693  66.7084   C.2       1 RES1   0.0000
    19 C19     31.9466  10.2393  65.7914   C.2       1 RES1   0.0000
    20 C20     31.1556  10.2053  64.5424   C.2       1 RES1   0.0000
    21 C21     30.4946   8.9722  64.1344   C.2       1 RES1   0.0000
    22 C22     32.8335  11.4253  66.0404   C.3       1 RES1   0.0000
    23 S23     34.2025  11.6573  64.9034   S.o2      1 RES1   0.0000
    24 O24     34.7855  10.3733  64.5984   O.2       1 RES1   0.0000
    25 O25     35.0625  12.7014  65.3974   O.2       1 RES1   0.0000
    26 N26     33.6235  12.2553  63.4804   N.pl3     1 RES1   0.0000
    27 C27     32.8355  13.4734  63.4034   C.3       1 RES1   0.0000
    28 H1      33.8259  11.7517  62.6227   H         1 RES1   0.0000
    29 H2      30.0420   8.8981  63.1467   H         1 RES1   0.0000
    30 H3      31.0672  11.1004  63.9284   H         1 RES1   0.0000
    31 H4      33.4185  14.3080  63.7900   H         1 RES1   0.0000
    32 H5      32.5677  13.6675  62.3658   H         1 RES1   0.0000
    33 H6      31.9296  13.3578  63.9966   H         1 RES1   0.0000
    34 H7      32.4966   9.1161  67.6495   H         1 RES1   0.0000
    35 H8      31.2378   6.9720  66.9957   H         1 RES1   0.0000
    36 H9      23.1480   4.1322  61.5568   H         1 RES1   0.0000
    37 H10     24.4314   2.5319  63.1316   H         1 RES1   0.0000
    38 H11     26.7095   2.4431  64.8865   H         1 RES1   0.0000
    39 H12     33.2493  11.3226  67.0416   H         1 RES1   0.0000
    40 H13     32.2117  12.3182  65.9954   H         1 RES1   0.0000
    41 H14     30.0735   5.7977  65.0199   H         1 RES1   0.0000
    42 H15     24.5703   8.8920  60.4672   H         1 RES1   0.0000
@<TRIPOS>BOND
     1     1     2   am
     2     1     8    1
     3     2     3    1
     4     2    10    2
     5     3     9    1
     6     3    11    2
     7     4     5    1
     8     4     9    2
     9     4    12    1
    10     5     6    2
    11     5    14    1
    12     6     7    1
    13     7     8    2
    14     8     9    1
    15    11    15    1
    16    12    13    1
    17    13    14    2
    18    15    16    1
    19    16    17    2
    20    16    21    1
    21    17    18    1
    22    18    19    2
    23    19    20    1
    24    19    22    1
    25    20    21    2
    26    22    23    1
    27    23    24    2
    28    23    25    2
    29    23    26    1
    30    26    27    1
    31    26    28    1
    32    21    29    1
    33    20    30    1
    34    27    31    1
    35    27    32    1
    36    27    33    1
    37    18    34    1
    38    17    35    1
    39     6    36    1
    40     7    37    1
    41     1    38    1
    42    22    39    1
    43    22    40    1
    44    15    41    1
    45    13    42    1
@<TRIPOS>SUBSTRUCTURE
     1 RES1        1 GROUP             0 ****  ****    0  
@<TRIPOS>MOLECULE
1WCC:A:CIG1299
    12    12     1     0     0
SMALL
NO_CHARGES
****
Generated from the CSD

@<TRIPOS>ATOM
     1 N1      28.1380   7.6247  64.7214   N.pl3     1 RES1   0.0000
     2 C2      27.8280   6.2758  64.7814   C.2       1 RES1   0.0000
     3 C3      28.5460   5.3898  65.6684   C.2       1 RES1   0.0000
     4 N4      28.1300   4.0989  65.6064   N.2       1 RES1   0.0000
     5 C5      27.1550   3.5819  64.8304   C.2       1 RES1   0.0000
     6 C6      26.5010   4.4878  64.0044   C.2       1 RES1   0.0000
     7 Cl7     25.2660   3.8859  62.9944   Cl        1 RES1   0.0000
     8 N8      26.8380   5.8018  63.9784   N.2       1 RES1   0.0000
     9 H1      26.8974   2.5240  64.8501   H         1 RES1   0.0000
    10 H2      29.3465   5.7261  66.3257   H         1 RES1   0.0000
    11 H3      27.6254   8.2358  64.0937   H         1 RES1   0.0000
    12 H4      28.8777   8.0019  65.3052   H         1 RES1   0.0000
@<TRIPOS>BOND
     1     1     2    1
     2     2     3    2
     3     2     8    1
     4     3     4    1
     5     4     5    2
     6     5     6    1
     7     6     7    1
     8     6     8    2
     9     5     9    1
    10     3    10    1
    11     1    11    1
    12     1    12    1
@<TRIPOS>SUBSTRUCTURE
     1 RES1        1 GROUP             0 ****  ****    0  
@<TRIPOS>MOLECULE
5OO3:A:9ZB301
    34    35     1     0     0
SMALL
NO_CHARGES
****
Generated from the CSD

@<TRIPOS>ATOM
     1 C1      23.1942   4.4069  64.4860   C.3       1 RES1   0.0000
     2 C2      22.0902   3.3349  64.4630   C.3       1 RES1   0.0000
     3 C3      25.1582   5.7028  61.4331   C.3       1 RES1   0.0000
     4 C4      25.2742   7.1668  61.8261   C.3       1 RES1   0.0000
     5 O5      22.7262   4.9148  62.2620   O.2       1 RES1   0.0000
     6 C6      23.6182   4.8088  63.0910   C.2       1 RES1   0.0000
     7 N7      24.8872   5.0478  62.7170   N.am      1 RES1   0.0000
     8 C8      25.9722   4.9298  63.5940   C.2       1 RES1   0.0000
     9 C9      26.4082   3.8139  64.3100   C.2       1 RES1   0.0000
    10 C10     27.5542   3.9579  65.1200   C.2       1 RES1   0.0000
    11 C11     28.3032   5.1608  65.2729   C.2       1 RES1   0.0000
    12 C12     27.8822   6.2658  64.5180   C.2       1 RES1   0.0000
    13 C13     26.7702   6.1718  63.6780   C.2       1 RES1   0.0000
    14 N14     26.3202   7.2748  62.9060   N.pl3     1 RES1   0.0000
    15 C15     26.8552   8.5797  63.2650   C.3       1 RES1   0.0000
    16 C16     28.1112   8.8227  62.4560   C.3       1 RES1   0.0000
    17 H1      27.8694   8.7993  61.3944   H         1 RES1   0.0000
    18 H2      28.5255   9.7966  62.7126   H         1 RES1   0.0000
    19 H3      28.8423   8.0470  62.6790   H         1 RES1   0.0000
    20 H4      27.0930   8.5996  64.3275   H         1 RES1   0.0000
    21 H5      26.1201   9.3519  63.0430   H         1 RES1   0.0000
    22 H6      28.4276   7.2058  64.5876   H         1 RES1   0.0000
    23 H7      25.8810   2.8632  64.2455   H         1 RES1   0.0000
    24 H8      27.8929   3.0819  65.6713   H         1 RES1   0.0000
    25 H9      29.1599   5.2193  65.9426   H         1 RES1   0.0000
    26 H10     24.0588   4.0107  65.0165   H         1 RES1   0.0000
    27 H11     22.8201   5.2866  65.0076   H         1 RES1   0.0000
    28 H12     22.4565   2.4476  63.9487   H         1 RES1   0.0000
    29 H13     21.8152   3.0751  65.4842   H         1 RES1   0.0000
    30 H14     21.2177   3.7235  63.9398   H         1 RES1   0.0000
    31 H15     26.0860   5.3388  60.9941   H         1 RES1   0.0000
    32 H16     24.3395   5.5476  60.7320   H         1 RES1   0.0000
    33 H17     24.3170   7.5263  62.2008   H         1 RES1   0.0000
    34 H18     25.5716   7.7594  60.9622   H         1 RES1   0.0000
@<TRIPOS>BOND
     1     1     2    1
     2     1     6    1
     3     3     4    1
     4     3     7    1
     5     4    14    1
     6     5     6    2
     7     6     7   am
     8     7     8    1
     9     8     9    2
    10     8    13    1
    11     9    10    1
    12    10    11    2
    13    11    12    1
    14    12    13    2
    15    13    14    1
    16    14    15    1
    17    15    16    1
    18    16    17    1
    19    16    18    1
    20    16    19    1
    21    15    20    1
    22    15    21    1
    23    12    22    1
    24     9    23    1
    25    10    24    1
    26    11    25    1
    27     1    26    1
    28     1    27    1
    29     2    28    1
    30     2    29    1
    31     2    30    1
    32     3    31    1
    33     3    32    1
    34     4    33    1
    35     4    34    1
@<TRIPOS>SUBSTRUCTURE
     1 RES1        1 GROUP             0 ****  ****    0  
@<TRIPOS>MOLECULE
3SQQ:A:99Z456
    42    44     1     0     0
SMALL
NO_CHARGES
****
Generated from the CSD

@<TRIPOS>ATOM
     1 N1      28.3636   4.3680  65.4110   N.2       1 RES1   0.0000
     2 N2      29.6857   6.2359  65.9400   N.pl3     1 RES1   0.0000
     3 N3      26.7456   2.6520  64.5361   N.pl3     1 RES1   0.0000
     4 N4      32.5937  11.9319  64.0251   N.pl3     1 RES1   0.0000
     5 C5      26.7876   5.0389  63.7811   C.2       1 RES1   0.0000
     6 C6      27.2546   3.9500  64.5691   C.2       1 RES1   0.0000
     7 C7      28.6357   5.6989  65.2050   C.2       1 RES1   0.0000
     8 C8      30.4877   7.3379  65.5980   C.2       1 RES1   0.0000
     9 C9      25.6596   4.8250  62.8091   C.2       1 RES1   0.0000
    10 C10     25.2336   5.9799  61.9601   C.2       1 RES1   0.0000
    11 C11     23.9035   6.4899  61.9881   C.2       1 RES1   0.0000
    12 C12     23.6115   7.5909  61.1522   C.2       1 RES1   0.0000
    13 C13     24.5936   8.1649  60.3222   C.2       1 RES1   0.0000
    14 C14     25.9126   7.6589  60.2872   C.2       1 RES1   0.0000
    15 C15     26.2366   6.5509  61.1182   C.2       1 RES1   0.0000
    16 C16     30.3127   8.0679  64.4021   C.2       1 RES1   0.0000
    17 C17     31.1777   9.1359  64.1641   C.2       1 RES1   0.0000
    18 C18     32.1667   9.4259  65.1150   C.2       1 RES1   0.0000
    19 C19     32.3287   8.6999  66.3030   C.2       1 RES1   0.0000
    20 C20     31.4767   7.6399  66.5540   C.2       1 RES1   0.0000
    21 C21     22.8115   5.8919  62.8841   C.3       1 RES1   0.0000
    22 O22     25.1336   3.7020  62.7111   O.2       1 RES1   0.0000
    23 O23     33.6188  11.4869  66.0210   O.2       1 RES1   0.0000
    24 O24     34.0888  10.2769  63.7041   O.2       1 RES1   0.0000
    25 S25     27.6286   6.4109  64.0911   S.3       1 RES1   0.0000
    26 S26     33.2748  10.7329  64.8240   S.o2      1 RES1   0.0000
    27 H1      31.5682   7.0539  67.4673   H         1 RES1   0.0000
    28 H2      33.1097   8.9652  67.0140   H         1 RES1   0.0000
    29 H3      23.1170   5.9652  63.9268   H         1 RES1   0.0000
    30 H4      21.8820   6.4404  62.7388   H         1 RES1   0.0000
    31 H5      22.6602   4.8456  62.6229   H         1 RES1   0.0000
    32 H6      22.6043   8.0049  61.1497   H         1 RES1   0.0000
    33 H7      24.3315   9.0156  59.6949   H         1 RES1   0.0000
    34 H8      26.6639   8.1071  59.6387   H         1 RES1   0.0000
    35 H9      27.2449   6.1396  61.1127   H         1 RES1   0.0000
    36 H10     29.5304   7.8064  63.6911   H         1 RES1   0.0000
    37 H11     25.9679   2.4273  63.9238   H         1 RES1   0.0000
    38 H12     27.1529   1.9321  65.1243   H         1 RES1   0.0000
    39 H13     33.1349  12.7581  63.7913   H         1 RES1   0.0000
    40 H14     31.6187  11.8693  63.7501   H         1 RES1   0.0000
    41 H15     29.8969   5.7813  66.8226   H         1 RES1   0.0000
    42 H16     31.0868   9.7327  63.2578   H         1 RES1   0.0000
@<TRIPOS>BOND
     1     1     6    1
     2     1     7    2
     3     2     7    1
     4     2     8    1
     5     3     6    1
     6     4    26    1
     7     5     6    2
     8     5     9    1
     9     5    25    1
    10     7    25    1
    11     8    16    2
    12     8    20    1
    13     9    10    1
    14     9    22    2
    15    10    11    2
    16    10    15    1
    17    11    12    1
    18    11    21    1
    19    12    13    2
    20    13    14    1
    21    14    15    2
    22    16    17    1
    23    17    18    2
    24    18    19    1
    25    18    26    1
    26    19    20    2
    27    23    26    2
    28    24    26    2
    29    20    27    1
    30    19    28    1
    31    21    29    1
    32    21    30    1
    33    21    31    1
    34    12    32    1
    35    13    33    1
    36    14    34    1
    37    15    35    1
    38    16    36    1
    39     3    37    1
    40     3    38    1
    41     4    39    1
    42     4    40    1
    43     2    41    1
    44    17    42    1
@<TRIPOS>SUBSTRUCTURE
     1 RES1        1 GROUP             0 ****  ****    0  
@<TRIPOS>MOLECULE
2WIH:A:P481299
    66    70     1     0     0
SMALL
NO_CHARGES
****
Generated from the CSD

@<TRIPOS>ATOM
     1 O1      22.2160   6.8402  60.9132   O.2       1 RES1   0.0000
     2 C2      23.1830   7.4882  60.6031   C.2       1 RES1   0.0000
     3 N3      23.2750   8.3192  59.5590   N.am      1 RES1   0.0000
     4 C4      22.2640   8.6432  58.5649   C.3       1 RES1   0.0000
     5 C5      24.3669   7.3622  61.4462   C.2       1 RES1   0.0000
     6 N6      25.2558   8.3272  61.5732   N.2       1 RES1   0.0000
     7 N7      26.2517   7.9092  62.4233   N.pl3     1 RES1   0.0000
     8 C8      27.3056   8.9282  62.6374   C.3       1 RES1   0.0000
     9 C9      26.0387   6.6792  62.8744   C.2       1 RES1   0.0000
    10 C10     24.7778   6.1882  62.2723   C.2       1 RES1   0.0000
    11 C11     26.8606   5.8351  63.7765   C.2       1 RES1   0.0000
    12 C12     26.4687   4.4951  63.9745   C.2       1 RES1   0.0000
    13 C13     25.2448   3.8681  63.2804   C.3       1 RES1   0.0000
    14 C14     24.2209   4.7891  62.5974   C.3       1 RES1   0.0000
    15 C15     23.6679   4.0601  61.3752   C.3       1 RES1   0.0000
    16 C16     23.1000   5.0191  63.5745   C.3       1 RES1   0.0000
    17 N17     27.9675   6.3402  64.3815   N.2       1 RES1   0.0000
    18 C18     28.7525   5.6041  65.1996   C.2       1 RES1   0.0000
    19 N19     28.3905   4.2961  65.4286   N.2       1 RES1   0.0000
    20 C20     27.2886   3.7371  64.8336   C.2       1 RES1   0.0000
    21 N21     29.8644   6.1222  65.7727   N.pl3     1 RES1   0.0000
    22 C22     30.4353   7.3772  65.6667   C.2       1 RES1   0.0000
    23 C23     30.4573   8.1132  64.4335   C.2       1 RES1   0.0000
    24 C24     31.0603   9.3722  64.3435   C.2       1 RES1   0.0000
    25 C25     31.6692   9.9373  65.4936   C.2       1 RES1   0.0000
    26 C26     31.6582   9.2162  66.7418   C.2       1 RES1   0.0000
    27 C27     31.0443   7.9472  66.8208   C.2       1 RES1   0.0000
    28 N28     32.2892  11.1933  65.4226   N.pl3     1 RES1   0.0000
    29 C29     33.2931  11.4773  64.3875   C.3       1 RES1   0.0000
    30 C30     32.7181  12.7093  63.7025   C.3       1 RES1   0.0000
    31 N31     32.4791  13.6553  64.8006   N.3       1 RES1   0.0000
    32 C32     33.3331  14.8224  64.9756   C.3       1 RES1   0.0000
    33 C33     31.3992  13.4163  65.7497   C.3       1 RES1   0.0000
    34 C34     31.9092  12.1713  66.4747   C.3       1 RES1   0.0000
    35 H1      31.0365   7.4041  67.7647   H         1 RES1   0.0000
    36 H2      33.3857  10.6461  63.6901   H         1 RES1   0.0000
    37 H3      34.2653  11.6902  64.8296   H         1 RES1   0.0000
    38 H4      32.1240   9.6508  67.6250   H         1 RES1   0.0000
    39 H5      22.3420   5.6518  63.1150   H         1 RES1   0.0000
    40 H6      22.6567   4.0633  63.8500   H         1 RES1   0.0000
    41 H7      23.4900   5.5087  64.4656   H         1 RES1   0.0000
    42 H8      24.4598   3.9347  60.6383   H         1 RES1   0.0000
    43 H9      23.2925   3.0827  61.6746   H         1 RES1   0.0000
    44 H10     22.8570   4.6430  60.9410   H         1 RES1   0.0000
    45 H11     31.0623   9.9139  63.3988   H         1 RES1   0.0000
    46 H12     24.7066   3.2982  64.0364   H         1 RES1   0.0000
    47 H13     25.6237   3.1906  62.5166   H         1 RES1   0.0000
    48 H14     26.8617   9.8246  63.0680   H         1 RES1   0.0000
    49 H15     28.0592   8.5337  63.3174   H         1 RES1   0.0000
    50 H16     27.7705   9.1754  61.6842   H         1 RES1   0.0000
    51 H17     21.3961   9.0782  59.0583   H         1 RES1   0.0000
    52 H18     22.6721   9.3577  57.8516   H         1 RES1   0.0000
    53 H19     21.9668   7.7362  58.0405   H         1 RES1   0.0000
    54 H20     24.1693   8.7857  59.4454   H         1 RES1   0.0000
    55 H21     30.4562  13.2231  65.2405   H         1 RES1   0.0000
    56 H22     31.2770  14.2544  66.4342   H         1 RES1   0.0000
    57 H23     32.7751  12.4208  67.0862   H         1 RES1   0.0000
    58 H24     31.1253  11.7572  67.1072   H         1 RES1   0.0000
    59 H25     30.3626   5.4818  66.3826   H         1 RES1   0.0000
    60 H26     27.0442   2.6938  65.0277   H         1 RES1   0.0000
    61 H27     29.9937   7.6810  63.5479   H         1 RES1   0.0000
    62 H28     33.2824  15.4462  64.0844   H         1 RES1   0.0000
    63 H29     32.9944  15.3939  65.8385   H         1 RES1   0.0000
    64 H30     34.3609  14.4996  65.1347   H         1 RES1   0.0000
    65 H31     31.7872  12.4677  63.1916   H         1 RES1   0.0000
    66 H32     33.4288  13.1201  62.9869   H         1 RES1   0.0000
@<TRIPOS>BOND
     1     1     2    2
     2     2     3   am
     3     2     5    1
     4     3     4    1
     5     5     6    2
     6     5    10    1
     7     6     7    1
     8     7     8    1
     9     7     9    1
    10     9    10    2
    11     9    11    1
    12    10    14    1
    13    11    12    2
    14    11    17    1
    15    12    13    1
    16    12    20    1
    17    13    14    1
    18    14    15    1
    19    14    16    1
    20    17    18    2
    21    18    19    1
    22    18    21    1
    23    19    20    2
    24    21    22    1
    25    22    23    2
    26    22    27    1
    27    23    24    1
    28    24    25    2
    29    25    26    1
    30    25    28    1
    31    26    27    2
    32    28    29    1
    33    28    34    1
    34    29    30    1
    35    30    31    1
    36    31    32    1
    37    31    33    1
    38    33    34    1
    39    27    35    1
    40    29    36    1
    41    29    37    1
    42    26    38    1
    43    16    39    1
    44    16    40    1
    45    16    41    1
    46    15    42    1
    47    15    43    1
    48    15    44    1
    49    24    45    1
    50    13    46    1
    51    13    47    1
    52     8    48    1
    53     8    49    1
    54     8    50    1
    55     4    51    1
    56     4    52    1
    57     4    53    1
    58     3    54    1
    59    33    55    1
    60    33    56    1
    61    34    57    1
    62    34    58    1
    63    21    59    1
    64    20    60    1
    65    23    61    1
    66    32    62    1
    67    32    63    1
    68    32    64    1
    69    30    65    1
    70    30    66    1
@<TRIPOS>SUBSTRUCTURE
     1 RES1        1 GROUP             0 ****  ****    0  
@<TRIPOS>MOLECULE
3RM7:A:19Z654
    34    35     1     0     0
SMALL
USER_CHARGES
****
Generated from the CSD

@<TRIPOS>ATOM
     1 N1      29.8436   6.4671  64.8140   N.pl3     1 RES1   0.0000
     2 N2      26.9216   3.5641  64.6700   N.am      1 RES1   0.0000
     3 N3      24.8975   7.7401  62.8160   N.pl3     1 RES1   1.0000
     4 C4      26.2806   6.2031  63.9420   C.2       1 RES1   0.0000
     5 C5      27.5606   5.8511  64.4690   C.2       1 RES1   0.0000
     6 C6      28.6626   6.7781  64.3350   C.2       1 RES1   0.0000
     7 C7      28.4276   8.0381  63.6630   C.2       1 RES1   0.0000
     8 C8      27.1466   8.3631  63.1470   C.2       1 RES1   0.0000
     9 C9      26.0596   7.4491  63.2810   C.2       1 RES1   0.0000
    10 C10     27.6996   4.6211  65.0880   C.2       1 RES1   0.0000
    11 C11     31.0887   7.2651  64.5790   C.3       1 RES1   0.0000
    12 C12     31.2117   8.3611  65.6070   C.2       1 RES1   0.0000
    13 C13     31.2677   8.0451  66.9980   C.2       1 RES1   0.0000
    14 C14     31.3717   9.0862  67.9590   C.2       1 RES1   0.0000
    15 C15     31.4207  10.4432  67.5350   C.2       1 RES1   0.0000
    16 C16     31.3657  10.7612  66.1450   C.2       1 RES1   0.0000
    17 C17     31.2627   9.7222  65.1840   C.2       1 RES1   0.0000
    18 O18     28.5026   4.4471  65.9810   O.2       1 RES1   0.0000
    19 O19     31.5177  11.4302  68.4510   O.3       1 RES1   0.0000
    20 O20     23.8815   6.8901  62.9400   O.3       1 RES1  -1.0000
    21 O21     24.6875   8.8932  62.2019   O.2       1 RES1   0.0000
    22 H1      29.9184   5.6293  65.3821   H         1 RES1   0.0000
    23 H2      25.4526   5.5036  64.0470   H         1 RES1   0.0000
    24 H3      29.2464   8.7474  63.5517   H         1 RES1   0.0000
    25 H4      26.9921   9.3171  62.6451   H         1 RES1   0.0000
    26 H5      31.0488   7.7082  63.5850   H         1 RES1   0.0000
    27 H6      31.9545   6.6083  64.6492   H         1 RES1   0.0000
    28 H7      31.2307   7.0062  67.3224   H         1 RES1   0.0000
    29 H8      27.0149   2.6574  65.1166   H         1 RES1   0.0000
    30 H9      26.2550   3.6919  63.9154   H         1 RES1   0.0000
    31 H10     31.4139   8.8454  69.0202   H         1 RES1   0.0000
    32 H11     31.4027  11.8005  65.8219   H         1 RES1   0.0000
    33 H12     31.2226   9.9642  64.1230   H         1 RES1   0.0000
    34 H13     32.3509  11.3119  68.9781   H         1 RES1   0.0000
@<TRIPOS>BOND
     1     1     6    1
     2     1    11    1
     3     2    10   am
     4     3     9    1
     5     3    20    1
     6     3    21    2
     7     4     5    2
     8     4     9    1
     9     5     6    1
    10     5    10    1
    11     6     7    2
    12     7     8    1
    13     8     9    2
    14    10    18    2
    15    11    12    1
    16    12    13    2
    17    12    17    1
    18    13    14    1
    19    14    15    2
    20    15    16    1
    21    15    19    1
    22    16    17    2
    23     1    22    1
    24     4    23    1
    25     7    24    1
    26     8    25    1
    27    11    26    1
    28    11    27    1
    29    13    28    1
    30     2    29    1
    31     2    30    1
    32    14    31    1
    33    16    32    1
    34    17    33    1
    35    19    34    1
@<TRIPOS>SUBSTRUCTURE
     1 RES1        1 GROUP             0 ****  ****    0  
@<TRIPOS>MOLECULE
3QZG:A:X67471
    24    25     1     0     0
SMALL
NO_CHARGES
****
Generated from the CSD

@<TRIPOS>ATOM
     1 C1      30.4057   7.5577  65.3837   C.2       1 RES1   0.0000
     2 N2      31.4207   7.3607  66.2507   N.pl3     1 RES1   0.0000
     3 N3      29.4987   6.5748  65.1827   N.2       1 RES1   0.0000
     4 C4      28.4487   6.7238  64.3077   C.2       1 RES1   0.0000
     5 C5      27.5497   5.6938  64.1137   C.2       1 RES1   0.0000
     6 C6      26.4557   5.8548  63.1788   C.2       1 RES1   0.0000
     7 C7      25.5247   4.8128  62.9398   C.2       1 RES1   0.0000
     8 F8      24.5147   4.9948  62.0528   F         1 RES1   0.0000
     9 C9      25.6477   3.5769  63.6168   C.2       1 RES1   0.0000
    10 C10     26.6997   3.3709  64.5427   C.2       1 RES1   0.0000
    11 C11     27.6657   4.4048  64.8187   C.2       1 RES1   0.0000
    12 O12     28.6087   4.2089  65.6527   O.3       1 RES1   0.0000
    13 N13     28.3367   7.9217  63.6278   N.2       1 RES1   0.0000
    14 C14     29.2567   8.9257  63.8258   C.2       1 RES1   0.0000
    15 N15     29.1477  10.0447  63.1888   N.pl3     1 RES1   0.0000
    16 N16     30.2887   8.7347  64.7057   N.2       1 RES1   0.0000
    17 H1      26.3455   6.7986  62.6468   H         1 RES1   0.0000
    18 H2      28.5452   4.8748  66.3866   H         1 RES1   0.0000
    19 H3      24.9304   2.7802  63.4253   H         1 RES1   0.0000
    20 H4      26.7803   2.4136  65.0556   H         1 RES1   0.0000
    21 H5      32.1049   8.0942  66.4063   H         1 RES1   0.0000
    22 H6      31.5000   6.4791  66.7473   H         1 RES1   0.0000
    23 H7      29.8289  10.7822  63.3383   H         1 RES1   0.0000
    24 H8      28.3809  10.1861  62.5390   H         1 RES1   0.0000
@<TRIPOS>BOND
     1     1     2    1
     2     1     3    2
     3     1    16    1
     4     3     4    1
     5     4     5    1
     6     4    13    2
     7     5     6    2
     8     5    11    1
     9     6     7    1
    10     7     8    1
    11     7     9    2
    12     9    10    1
    13    10    11    2
    14    11    12    1
    15    13    14    1
    16    14    15    1
    17    14    16    2
    18     6    17    1
    19    12    18    1
    20     9    19    1
    21    10    20    1
    22     2    21    1
    23     2    22    1
    24    15    23    1
    25    15    24    1
@<TRIPOS>SUBSTRUCTURE
     1 RES1        1 GROUP             0 ****  ****    0  
@<TRIPOS>MOLECULE
1PXI:A:CK1500
    19    20     1     0     0
SMALL
NO_CHARGES
****
Generated from the CSD

@<TRIPOS>ATOM
     1 Cl1     26.0241  11.6902  62.6510   Cl        1 RES1   0.0000
     2 C2      26.2651  10.1011  62.2490   C.2       1 RES1   0.0000
     3 C3      26.6271   9.1671  63.3020   C.2       1 RES1   0.0000
     4 S4      26.1331   9.4451  60.7180   S.3       1 RES1   0.0000
     5 C5      26.5361   7.9611  61.3890   C.2       1 RES1   0.0000
     6 Cl6     26.6041   6.7421  60.3899   Cl        1 RES1   0.0000
     7 C7      26.7911   7.8651  62.7200   C.2       1 RES1   0.0000
     8 C8      27.1341   6.7151  63.5621   C.2       1 RES1   0.0000
     9 N9      26.5511   5.4781  63.4500   N.2       1 RES1   0.0000
    10 C10     28.1491   6.8511  64.5741   C.2       1 RES1   0.0000
    11 C11     28.4661   5.7451  65.4021   C.2       1 RES1   0.0000
    12 N12     27.7891   4.5511  65.1461   N.2       1 RES1   0.0000
    13 C13     26.8721   4.5021  64.2501   C.2       1 RES1   0.0000
    14 N14     26.3101   3.3030  64.0491   N.pl3     1 RES1   0.0000
    15 H1      26.5427   2.5250  64.6581   H         1 RES1   0.0000
    16 H2      25.6516   3.1723  63.2878   H         1 RES1   0.0000
    17 H3      28.6705   7.7985  64.7027   H         1 RES1   0.0000
    18 H4      29.2029   5.8230  66.2002   H         1 RES1   0.0000
    19 H5      26.7528   9.4135  64.3553   H         1 RES1   0.0000
@<TRIPOS>BOND
     1     1     2    1
     2     2     3    2
     3     2     4    1
     4     3     7    1
     5     4     5    1
     6     5     6    1
     7     5     7    2
     8     7     8    1
     9     8     9    2
    10     8    10    1
    11     9    13    1
    12    10    11    2
    13    11    12    1
    14    12    13    2
    15    13    14    1
    16    14    15    1
    17    14    16    1
    18    10    17    1
    19    11    18    1
    20     3    19    1
@<TRIPOS>SUBSTRUCTURE
     1 RES1        1 GROUP             0 ****  ****    0  
@<TRIPOS>MOLECULE
3RNI:A:21Z424
    39    41     1     0     0
SMALL
NO_CHARGES
****
Generated from the CSD

@<TRIPOS>ATOM
     1 N1      28.5186   4.3700  65.2038   N.pl3     1 RES1   0.0000
     2 N2      29.7826   6.1881  65.7008   N.2       1 RES1   0.0000
     3 N3      26.9605   2.8470  64.3937   N.pl3     1 RES1   0.0000
     4 N4      32.3137   8.7931  69.2769   N.pl3     1 RES1   0.0000
     5 C5      26.7945   5.0930  63.7467   C.2       1 RES1   0.0000
     6 C6      27.3966   4.0390  64.4477   C.2       1 RES1   0.0000
     7 C7      28.7706   5.6610  65.0858   C.2       1 RES1   0.0000
     8 C8      25.6705   4.9950  62.9147   C.2       1 RES1   0.0000
     9 C9      30.2866   7.3851  65.5578   C.2       1 RES1   0.0000
    10 C10     25.3105   6.0240  62.0517   C.2       1 RES1   0.0000
    11 C11     30.9606   7.9481  66.6718   C.2       1 RES1   0.0000
    12 C12     31.5376   9.2361  66.5938   C.2       1 RES1   0.0000
    13 C13     31.4516   9.9961  65.3968   C.2       1 RES1   0.0000
    14 C14     30.7846   9.4551  64.2607   C.2       1 RES1   0.0000
    15 C15     30.2056   8.1531  64.3367   C.2       1 RES1   0.0000
    16 C16     26.2505   6.5781  61.1197   C.2       1 RES1   0.0000
    17 C17     25.8615   7.6331  60.2476   C.2       1 RES1   0.0000
    18 C18     24.5395   8.1431  60.2936   C.2       1 RES1   0.0000
    19 C19     23.5975   7.6011  61.2087   C.2       1 RES1   0.0000
    20 C20     23.9815   6.5461  62.0857   C.2       1 RES1   0.0000
    21 O21     24.9935   3.9770  62.9327   O.2       1 RES1   0.0000
    22 O22     33.7717  10.1371  67.6528   O.2       1 RES1   0.0000
    23 O23     31.7456  11.1651  68.3918   O.2       1 RES1   0.0000
    24 S24     27.6696   6.5371  64.0697   S.3       1 RES1   0.0000
    25 S25     32.3797   9.9041  68.0118   S.o2      1 RES1   0.0000
    26 H1      23.2567   6.1349  62.7868   H         1 RES1   0.0000
    27 H2      22.5816   7.9922  61.2397   H         1 RES1   0.0000
    28 H3      27.2669   6.1892  61.0796   H         1 RES1   0.0000
    29 H4      26.5805   8.0495  59.5436   H         1 RES1   0.0000
    30 H5      32.7470   9.0125  70.1681   H         1 RES1   0.0000
    31 H6      31.8406   7.9044  69.1477   H         1 RES1   0.0000
    32 H7      24.2455   8.9519  59.6262   H         1 RES1   0.0000
    33 H8      30.7168  10.0317  63.3394   H         1 RES1   0.0000
    34 H9      29.6990   7.7353  63.4680   H         1 RES1   0.0000
    35 H10     31.0344   7.3810  67.5985   H         1 RES1   0.0000
    36 H11     31.8945  10.9898  65.3480   H         1 RES1   0.0000
    37 H12     29.0606   3.7176  65.7612   H         1 RES1   0.0000
    38 H13     26.1408   2.6313  63.8354   H         1 RES1   0.0000
    39 H14     27.4318   2.1103  64.9089   H         1 RES1   0.0000
@<TRIPOS>BOND
     1     1     6    1
     2     1     7    1
     3     2     7    2
     4     2     9    1
     5     3     6    1
     6     4    25    1
     7     5     6    2
     8     5     8    1
     9     5    24    1
    10     7    24    1
    11     8    10    1
    12     8    21    2
    13     9    11    2
    14     9    15    1
    15    10    16    2
    16    10    20    1
    17    11    12    1
    18    12    13    2
    19    12    25    1
    20    13    14    1
    21    14    15    2
    22    16    17    1
    23    17    18    2
    24    18    19    1
    25    19    20    2
    26    22    25    2
    27    23    25    2
    28    20    26    1
    29    19    27    1
    30    16    28    1
    31    17    29    1
    32     4    30    1
    33     4    31    1
    34    18    32    1
    35    14    33    1
    36    15    34    1
    37    11    35    1
    38    13    36    1
    39     1    37    1
    40     3    38    1
    41     3    39    1
@<TRIPOS>SUBSTRUCTURE
     1 RES1        1 GROUP             0 ****  ****    0  
@<TRIPOS>MOLECULE
6GVA:A:FCQ301
    55    58     1     0     0
SMALL
NO_CHARGES
****
Generated from the CSD

@<TRIPOS>ATOM
     1 C1      26.2199   4.4412  64.3106   C.2       1 RES1   0.0000
     2 C2      31.2420  11.1194  66.3366   C.2       1 RES1   0.0000
     3 C3      28.0909   5.5612  64.7306   C.2       1 RES1   0.0000
     4 C4      26.8299   5.6482  64.1466   C.2       1 RES1   0.0000
     5 C5      31.2220   7.6533  64.7766   C.3       1 RES1   0.0000
     6 C6      27.2399   7.8033  63.5487   C.2       1 RES1   0.0000
     7 C7      28.2499  10.2754  62.7347   C.3       1 RES1   0.0000
     8 C8      29.0720   9.8834  61.5277   C.3       1 RES1   0.0000
     9 C9      28.9310   6.6822  64.6766   C.2       1 RES1   0.0000
    10 C10     31.2750   8.7813  65.7776   C.2       1 RES1   0.0000
    11 C11     31.1590  10.1074  65.3966   C.2       1 RES1   0.0000
    12 N12     27.0439   3.6131  64.9456   N.2       1 RES1   0.0000
    13 N13     28.1789   4.3012  65.1966   N.pl3     1 RES1   0.0000
    14 C14     23.7858   5.0502  64.1046   C.3       1 RES1   0.0000
    15 N15     26.3809   6.7802  63.5537   N.2       1 RES1   0.0000
    16 C16     24.9078   3.5981  62.3587   C.3       1 RES1   0.0000
    17 C17     24.8618   4.0011  63.8356   C.3       1 RES1   0.0000
    18 S18     26.7119   9.3123  62.8307   S.3       1 RES1   0.0000
    19 N19     28.6060  10.5054  60.2757   N.3       1 RES1   0.0000
    20 N20     28.4879   7.8003  64.0706   N.2       1 RES1   0.0000
    21 N21     30.2090   6.6742  65.1706   N.pl3     1 RES1   0.0000
    22 C22     31.4420  10.8294  67.6846   C.2       1 RES1   0.0000
    23 C23     31.5360   9.4923  68.0586   C.2       1 RES1   0.0000
    24 C24     31.4650   8.4913  67.1146   C.2       1 RES1   0.0000
    25 C25     31.4490  11.9074  68.7035   C.2       1 RES1   0.0000
    26 N26     30.8350  13.0625  68.3535   N.2       1 RES1   0.0000
    27 C27     30.7850  14.0555  69.2565   C.2       1 RES1   0.0000
    28 C28     31.2920  13.9425  70.5255   C.2       1 RES1   0.0000
    29 C29     31.8811  12.7525  70.8875   C.2       1 RES1   0.0000
    30 C30     31.9501  11.7184  69.9765   C.2       1 RES1   0.0000
    31 H1      29.0245   8.8014  61.4142   H         1 RES1   0.0000
    32 H2      30.1040  10.1854  61.7000   H         1 RES1   0.0000
    33 H3      30.4646   5.9560  65.8407   H         1 RES1   0.0000
    34 H4      31.1497  12.1568  66.0184   H         1 RES1   0.0000
    35 H5      31.6671   9.2344  69.1085   H         1 RES1   0.0000
    36 H6      31.5604   7.4528  67.4282   H         1 RES1   0.0000
    37 H7      30.3191  14.9962  68.9667   H         1 RES1   0.0000
    38 H8      31.2302  14.7722  71.2281   H         1 RES1   0.0000
    39 H9      32.2910  12.6276  71.8886   H         1 RES1   0.0000
    40 H10     32.3943  10.7648  70.2579   H         1 RES1   0.0000
    41 H11     25.6093   2.7753  62.2286   H         1 RES1   0.0000
    42 H12     23.9160   3.2838  62.0371   H         1 RES1   0.0000
    43 H13     25.2309   4.4486  61.7602   H         1 RES1   0.0000
    44 H14     24.5941   3.1117  64.4042   H         1 RES1   0.0000
    45 H15     28.6533  11.5156  60.3618   H         1 RES1   0.0000
    46 H16     29.1967  10.2033  59.5075   H         1 RES1   0.0000
    47 H17     24.0414   5.9734  63.5866   H         1 RES1   0.0000
    48 H18     22.8251   4.6856  63.7440   H         1 RES1   0.0000
    49 H19     23.7234   5.2400  65.1751   H         1 RES1   0.0000
    50 H20     32.1949   7.1660  64.7321   H         1 RES1   0.0000
    51 H21     30.9718   8.0546  63.7956   H         1 RES1   0.0000
    52 H22     28.0016  11.3335  62.6658   H         1 RES1   0.0000
    53 H23     28.8359  10.0979  63.6353   H         1 RES1   0.0000
    54 H24     28.9898   3.9193  65.6729   H         1 RES1   0.0000
    55 H25     31.0011  10.3560  64.3482   H         1 RES1   0.0000
@<TRIPOS>BOND
     1     1     4    1
     2     1    12    2
     3     1    17    1
     4     2    11    2
     5     2    22    1
     6     3     4    2
     7     3     9    1
     8     3    13    1
     9     4    15    1
    10     5    10    1
    11     5    21    1
    12     6    15    2
    13     6    18    1
    14     6    20    1
    15     7     8    1
    16     7    18    1
    17     8    19    1
    18     9    20    2
    19     9    21    1
    20    10    11    1
    21    10    24    2
    22    12    13    1
    23    14    17    1
    24    16    17    1
    25    22    23    2
    26    22    25    1
    27    23    24    1
    28    25    26    2
    29    25    30    1
    30    26    27    1
    31    27    28    2
    32    28    29    1
    33    29    30    2
    34     8    31    1
    35     8    32    1
    36    21    33    1
    37     2    34    1
    38    23    35    1
    39    24    36    1
    40    27    37    1
    41    28    38    1
    42    29    39    1
    43    30    40    1
    44    16    41    1
    45    16    42    1
    46    16    43    1
    47    17    44    1
    48    19    45    1
    49    19    46    1
    50    14    47    1
    51    14    48    1
    52    14    49    1
    53     5    50    1
    54     5    51    1
    55     7    52    1
    56     7    53    1
    57    13    54    1
    58    11    55    1
@<TRIPOS>SUBSTRUCTURE
     1 RES1        1 GROUP             0 ****  ****    0  
@<TRIPOS>MOLECULE
1JSV:A:U55400
    29    30     1     0     0
SMALL
NO_CHARGES
****
Generated from the CSD

@<TRIPOS>ATOM
     1 N1      25.8666   6.4731  62.6610   N.pl3     1 RES1   0.0000
     2 C2      26.6666   5.8111  63.5670   C.2       1 RES1   0.0000
     3 N3      26.3656   4.5161  63.8570   N.2       1 RES1   0.0000
     4 C4      27.2367   3.8291  64.6970   C.2       1 RES1   0.0000
     5 N5      28.2597   4.3951  65.3550   N.2       1 RES1   0.0000
     6 C6      27.8047   6.4271  64.1590   C.2       1 RES1   0.0000
     7 C7      28.5737   5.7201  65.0960   C.2       1 RES1   0.0000
     8 N8      29.5677   6.2491  65.7950   N.pl3     1 RES1   0.0000
     9 C9      30.3577   7.2992  65.5480   C.2       1 RES1   0.0000
    10 C10     31.1918   7.8272  66.5670   C.2       1 RES1   0.0000
    11 C11     31.9698   8.9772  66.3400   C.2       1 RES1   0.0000
    12 C12     30.4057   7.8912  64.2680   C.2       1 RES1   0.0000
    13 C13     31.1628   9.0472  64.0450   C.2       1 RES1   0.0000
    14 C14     31.9498   9.5982  65.0640   C.2       1 RES1   0.0000
    15 S15     33.1378  10.7922  64.6930   S.o2      1 RES1   0.0000
    16 O16     34.1198  10.2222  63.8270   O.2       1 RES1   0.0000
    17 O17     33.7948  11.1342  65.9930   O.2       1 RES1   0.0000
    18 N18     32.5518  12.1453  64.0800   N.pl3     1 RES1   0.0000
    19 H1      29.7634   5.7743  66.6705   H         1 RES1   0.0000
    20 H2      26.0630   7.4398  62.4220   H         1 RES1   0.0000
    21 H3      25.0810   5.9940  62.2327   H         1 RES1   0.0000
    22 H4      33.1793  12.9035  63.8318   H         1 RES1   0.0000
    23 H5      31.5519  12.2471  63.9386   H         1 RES1   0.0000
    24 H6      32.5843   9.3888  67.1394   H         1 RES1   0.0000
    25 H7      31.2303   7.3357  67.5380   H         1 RES1   0.0000
    26 H8      27.0773   2.7600  64.8292   H         1 RES1   0.0000
    27 H9      28.0783   7.4451  63.8854   H         1 RES1   0.0000
    28 H10     31.1396   9.5243  63.0664   H         1 RES1   0.0000
    29 H11     29.8485   7.4445  63.4459   H         1 RES1   0.0000
@<TRIPOS>BOND
     1     1     2    1
     2     2     3    2
     3     2     6    1
     4     3     4    1
     5     4     5    2
     6     5     7    1
     7     6     7    2
     8     7     8    1
     9     8     9    1
    10     9    10    2
    11     9    12    1
    12    10    11    1
    13    11    14    2
    14    12    13    2
    15    13    14    1
    16    14    15    1
    17    15    16    2
    18    15    17    2
    19    15    18    1
    20     8    19    1
    21     1    20    1
    22     1    21    1
    23    18    22    1
    24    18    23    1
    25    11    24    1
    26    10    25    1
    27     4    26    1
    28     6    27    1
    29    13    28    1
    30    12    29    1
@<TRIPOS>SUBSTRUCTURE
     1 RES1        1 GROUP             0 ****  ****    0  
@<TRIPOS>MOLECULE
3LFN:A:A27299
    47    50     1     0     0
SMALL
NO_CHARGES
****
Generated from the CSD

@<TRIPOS>ATOM
     1 C1      25.3534   9.7469  61.3132   C.2       1 RES1   0.0000
     2 C2      25.6464   8.7019  62.2112   C.2       1 RES1   0.0000
     3 C3      25.9714   7.4169  61.7402   C.2       1 RES1   0.0000
     4 C4      26.0404   7.2009  60.3532   C.2       1 RES1   0.0000
     5 C5      25.7574   8.2349  59.4582   C.2       1 RES1   0.0000
     6 C6      25.4084   9.5069  59.9362   C.2       1 RES1   0.0000
     7 C7      26.2844   6.3639  62.6192   C.2       1 RES1   0.0000
     8 C8      25.5534   5.1499  62.6932   C.2       1 RES1   0.0000
     9 C9      25.9974   4.1369  63.5502   C.2       1 RES1   0.0000
    10 C10     27.1384   4.3029  64.3322   C.2       1 RES1   0.0000
    11 C11     27.8674   5.4839  64.2582   C.2       1 RES1   0.0000
    12 C12     27.4334   6.5079  63.4102   C.2       1 RES1   0.0000
    13 C13     24.3994   4.8789  61.9622   C.2       1 RES1   0.0000
    14 C14     24.2654   3.5970  61.4232   C.2       1 RES1   0.0000
    15 C15     23.1584   3.2710  60.6522   C.2       1 RES1   0.0000
    16 C16     22.1553   4.2139  60.4572   C.2       1 RES1   0.0000
    17 C17     22.2693   5.4889  61.0132   C.2       1 RES1   0.0000
    18 C18     23.3734   5.8169  61.8042   C.2       1 RES1   0.0000
    19 O19     21.0633   3.8720  59.7282   O.3       1 RES1   0.0000
    20 N20     27.7604   3.4930  65.1862   N.2       1 RES1   0.0000
    21 N21     28.7664   4.0390  65.6502   N.2       1 RES1   0.0000
    22 C22     28.9224   5.2579  65.1392   C.2       1 RES1   0.0000
    23 N23     29.9835   6.0089  65.4752   N.2       1 RES1   0.0000
    24 C24     30.3985   7.2009  65.0282   C.2       1 RES1   0.0000
    25 C25     31.7075   7.6679  65.6672   C.3       1 RES1   0.0000
    26 C26     31.4775   8.1239  67.1082   C.3       1 RES1   0.0000
    27 C27     32.6395   8.9789  67.6102   C.3       1 RES1   0.0000
    28 O28     29.8315   7.9109  64.1972   O.2       1 RES1   0.0000
    29 H1      20.6035   3.1054  60.1605   H         1 RES1   0.0000
    30 H2      23.4345   6.7891  62.2910   H         1 RES1   0.0000
    31 H3      26.3170   6.2186  59.9730   H         1 RES1   0.0000
    32 H4      25.8078   8.0532  58.3856   H         1 RES1   0.0000
    33 H5      25.1802  10.3080  59.2347   H         1 RES1   0.0000
    34 H6      32.7405   9.8607  66.9792   H         1 RES1   0.0000
    35 H7      32.4464   9.2873  68.6366   H         1 RES1   0.0000
    36 H8      33.5601   8.3983  67.5727   H         1 RES1   0.0000
    37 H9      25.4413   3.2023  63.6069   H         1 RES1   0.0000
    38 H10     25.0345   2.8488  61.6092   H         1 RES1   0.0000
    39 H11     23.0759   2.2826  60.2026   H         1 RES1   0.0000
    40 H12     27.9998   7.4368  63.3632   H         1 RES1   0.0000
    41 H13     21.4942   6.2315  60.8297   H         1 RES1   0.0000
    42 H14     25.0862  10.7338  61.6880   H         1 RES1   0.0000
    43 H15     25.6210   8.8912  63.2833   H         1 RES1   0.0000
    44 H16     31.3800   7.2472  67.7468   H         1 RES1   0.0000
    45 H17     30.5605   8.7095  67.1532   H         1 RES1   0.0000
    46 H18     32.1097   8.4991  65.0899   H         1 RES1   0.0000
    47 H19     32.4202   6.8445  65.6630   H         1 RES1   0.0000
@<TRIPOS>BOND
     1     1     2    2
     2     1     6    1
     3     2     3    1
     4     3     4    2
     5     3     7    1
     6     4     5    1
     7     5     6    2
     8     7     8    1
     9     7    12    2
    10     8     9    2
    11     8    13    1
    12     9    10    1
    13    10    11    2
    14    10    20    1
    15    11    12    1
    16    11    22    1
    17    13    14    2
    18    13    18    1
    19    14    15    1
    20    15    16    2
    21    16    17    1
    22    16    19    1
    23    17    18    2
    24    20    21    2
    25    21    22    1
    26    22    23    2
    27    23    24    1
    28    24    25    1
    29    24    28    2
    30    25    26    1
    31    26    27    1
    32    19    29    1
    33    18    30    1
    34     4    31    1
    35     5    32    1
    36     6    33    1
    37    27    34    1
    38    27    35    1
    39    27    36    1
    40     9    37    1
    41    14    38    1
    42    15    39    1
    43    12    40    1
    44    17    41    1
    45     1    42    1
    46     2    43    1
    47    26    44    1
    48    26    45    1
    49    25    46    1
    50    25    47    1
@<TRIPOS>SUBSTRUCTURE
     1 RES1        1 GROUP             0 ****  ****    0  
@<TRIPOS>MOLECULE
3LFQ:A:A28299
    36    38     1     0     0
SMALL
NO_CHARGES
****
Generated from the CSD

@<TRIPOS>ATOM
     1 C1      25.9315   6.3892  62.2932   C.2       1 RES1   0.0000
     2 C2      25.2605   5.1572  62.3662   C.2       1 RES1   0.0000
     3 C3      25.6595   4.1801  63.2862   C.2       1 RES1   0.0000
     4 C4      27.0384   6.6042  63.1392   C.2       1 RES1   0.0000
     5 N5      27.3484   3.6491  65.0482   N.2       1 RES1   0.0000
     6 N6      28.2764   4.2641  65.5872   N.2       1 RES1   0.0000
     7 C7      28.3894   5.4862  65.0672   C.2       1 RES1   0.0000
     8 C8      27.4054   5.6352  64.0912   C.2       1 RES1   0.0000
     9 C9      26.7275   4.4201  64.1492   C.2       1 RES1   0.0000
    10 C10     25.5895   7.3162  61.2912   C.2       1 RES1   0.0000
    11 C11     24.2635   7.7092  61.0592   C.2       1 RES1   0.0000
    12 C12     23.9585   8.6133  60.0362   C.2       1 RES1   0.0000
    13 C13     24.9705   9.1223  59.2202   C.2       1 RES1   0.0000
    14 C14     26.2895   8.7203  59.4302   C.2       1 RES1   0.0000
    15 C15     26.5875   7.8092  60.4472   C.2       1 RES1   0.0000
    16 F16     24.2295   4.8761  61.5482   F         1 RES1   0.0000
    17 F17     24.9875   3.0161  63.3472   F         1 RES1   0.0000
    18 N18     29.4104   6.2992  65.3802   N.2       1 RES1   0.0000
    19 C19     29.4054   7.6442  65.3612   C.2       1 RES1   0.0000
    20 C20     30.7314   8.2942  65.7822   C.3       1 RES1   0.0000
    21 O21     28.4534   8.3562  65.0542   O.2       1 RES1   0.0000
    22 C22     31.6643   8.4612  64.5832   C.3       1 RES1   0.0000
    23 C23     32.6683   9.5843  64.8372   C.3       1 RES1   0.0000
    24 H1      27.6158   7.4778  60.5841   H         1 RES1   0.0000
    25 H2      22.9265   8.9216  59.8755   H         1 RES1   0.0000
    26 H3      23.4646   7.3072  61.6806   H         1 RES1   0.0000
    27 H4      33.2636   9.3468  65.7176   H         1 RES1   0.0000
    28 H5      33.3232   9.6880  63.9733   H         1 RES1   0.0000
    29 H6      32.1338  10.5187  65.0017   H         1 RES1   0.0000
    30 H7      31.0736   8.7018  63.7005   H         1 RES1   0.0000
    31 H8      32.2034   7.5298  64.4164   H         1 RES1   0.0000
    32 H9      27.0864   9.1160  58.8023   H         1 RES1   0.0000
    33 H10     24.7319   9.8279  58.4257   H         1 RES1   0.0000
    34 H11     31.2167   7.6639  66.5260   H         1 RES1   0.0000
    35 H12     30.5271   9.2730  66.2135   H         1 RES1   0.0000
    36 H13     27.6128   7.5256  63.0555   H         1 RES1   0.0000
@<TRIPOS>BOND
     1     1     2    2
     2     1     4    1
     3     1    10    1
     4     2     3    1
     5     2    16    1
     6     3     9    2
     7     3    17    1
     8     4     8    2
     9     5     6    2
    10     5     9    1
    11     6     7    1
    12     7     8    1
    13     7    18    2
    14     8     9    1
    15    10    11    2
    16    10    15    1
    17    11    12    1
    18    12    13    2
    19    13    14    1
    20    14    15    2
    21    18    19    1
    22    19    20    1
    23    19    21    2
    24    20    22    1
    25    22    23    1
    26    15    24    1
    27    12    25    1
    28    11    26    1
    29    23    27    1
    30    23    28    1
    31    23    29    1
    32    22    30    1
    33    22    31    1
    34    14    32    1
    35    13    33    1
    36    20    34    1
    37    20    35    1
    38     4    36    1
@<TRIPOS>SUBSTRUCTURE
     1 RES1        1 GROUP             0 ****  ****    0  
@<TRIPOS>MOLECULE
6INL:A:AJR900
    57    59     1     0     0
SMALL
NO_CHARGES
****
Generated from the CSD

@<TRIPOS>ATOM
     1 N1      28.8079   7.7120  63.8380   N.2       1 RES1   0.0000
     2 N2      28.2929   4.3410  65.2849   N.2       1 RES1   0.0000
     3 C3      27.6089   7.7520  63.2090   C.2       1 RES1   0.0000
     4 C4      27.1309   3.7420  64.9910   C.2       1 RES1   0.0000
     5 C5      25.0729   4.1500  63.6790   C.3       1 RES1   0.0000
     6 C6      25.1489   3.8080  62.1920   C.3       1 RES1   0.0000
     7 C7      23.9789   5.1700  63.8940   C.3       1 RES1   0.0000
     8 C8      26.0309   8.8740  61.6481   C.3       1 RES1   0.0000
     9 C9      31.3639   7.5430  64.8720   C.3       1 RES1   0.0000
    10 C10     31.6879   8.3630  67.2189   C.2       1 RES1   0.0000
    11 C11     31.4969  10.6880  67.8339   C.2       1 RES1   0.0000
    12 C12     32.3879  11.6560  69.8818   C.3       1 RES1   0.0000
    13 O13     29.9739  10.8420  62.1070   O.3       1 RES1   0.0000
    14 C14     28.9349  10.1250  61.4791   C.3       1 RES1   0.0000
    15 C15     27.9899  10.1080  62.6510   C.3       1 RES1   0.0000
    16 N16     27.2389   8.8870  62.4780   N.pl3     1 RES1   0.0000
    17 C17     26.2059   7.9760  60.4331   C.3       1 RES1   0.0000
    18 O18     24.9999   8.0750  59.6461   O.3       1 RES1   0.0000
    19 C19     29.1309   6.6130  64.5660   C.2       1 RES1   0.0000
    20 C20     28.2279   5.5630  64.6890   C.2       1 RES1   0.0000
    21 N21     26.3769   4.5530  64.2420   N.pl3     1 RES1   0.0000
    22 C22     27.0449   5.6470  63.9970   C.2       1 RES1   0.0000
    23 N23     26.7069   6.7500  63.2630   N.2       1 RES1   0.0000
    24 N24     30.3009   6.5320  65.1150   N.pl3     1 RES1   0.0000
    25 C25     31.4029   8.6520  65.8999   C.2       1 RES1   0.0000
    26 C26     31.1479   9.9740  65.5609   C.2       1 RES1   0.0000
    27 C27     31.2169  10.9850  66.5099   C.2       1 RES1   0.0000
    28 O28     31.5169  11.7170  68.7428   O.3       1 RES1   0.0000
    29 C29     31.7469   9.3410  68.1919   C.2       1 RES1   0.0000
    30 H1      24.8645   9.0177  59.3651   H         1 RES1   0.0000
    31 H2      30.2915  10.3373  62.9010   H         1 RES1   0.0000
    32 H3      31.9829   9.0795  69.2224   H         1 RES1   0.0000
    33 H4      24.7686   3.2428  64.1989   H         1 RES1   0.0000
    34 H5      25.3706   4.7097  61.6230   H         1 RES1   0.0000
    35 H6      25.9355   3.0729  62.0283   H         1 RES1   0.0000
    36 H7      24.1948   3.3976  61.8647   H         1 RES1   0.0000
    37 H8      31.1953   7.9890  63.8929   H         1 RES1   0.0000
    38 H9      32.3274   7.0355  64.8787   H         1 RES1   0.0000
    39 H10     26.3596   6.9457  60.7507   H         1 RES1   0.0000
    40 H11     27.0616   8.3064  59.8461   H         1 RES1   0.0000
    41 H12     33.4211  11.5842  69.5452   H         1 RES1   0.0000
    42 H13     32.2635  12.5558  70.4825   H         1 RES1   0.0000
    43 H14     32.1400  10.7817  70.4819   H         1 RES1   0.0000
    44 H15     31.8727   7.3278  67.5022   H         1 RES1   0.0000
    45 H16     31.0497  12.0189  66.2115   H         1 RES1   0.0000
    46 H17     30.4993   5.7513  65.7326   H         1 RES1   0.0000
    47 H18     29.2422   9.1249  61.1771   H         1 RES1   0.0000
    48 H19     28.5240  10.6534  60.6201   H         1 RES1   0.0000
    49 H20     26.8433   2.7427  65.3143   H         1 RES1   0.0000
    50 H21     30.8892  10.2223  64.5326   H         1 RES1   0.0000
    51 H22     27.3304  10.9743  62.6288   H         1 RES1   0.0000
    52 H23     28.5395  10.0942  63.5910   H         1 RES1   0.0000
    53 H24     25.8200   9.8883  61.3124   H         1 RES1   0.0000
    54 H25     25.1956   8.5075  62.2429   H         1 RES1   0.0000
    55 H26     23.0272   4.7568  63.5632   H         1 RES1   0.0000
    56 H27     23.9181   5.4195  64.9523   H         1 RES1   0.0000
    57 H28     24.2030   6.0688  63.3215   H         1 RES1   0.0000
@<TRIPOS>BOND
     1     1     3    2
     2     1    19    1
     3     2     4    2
     4     2    20    1
     5     3    16    1
     6     3    23    1
     7     4    21    1
     8     5     6    1
     9     5     7    1
    10     5    21    1
    11     8    16    1
    12     8    17    1
    13     9    24    1
    14     9    25    1
    15    10    25    2
    16    10    29    1
    17    11    27    1
    18    11    28    1
    19    11    29    2
    20    12    28    1
    21    13    14    1
    22    14    15    1
    23    15    16    1
    24    17    18    1
    25    19    20    2
    26    19    24    1
    27    20    22    1
    28    21    22    1
    29    22    23    2
    30    25    26    1
    31    26    27    2
    32    18    30    1
    33    13    31    1
    34    29    32    1
    35     5    33    1
    36     6    34    1
    37     6    35    1
    38     6    36    1
    39     9    37    1
    40     9    38    1
    41    17    39    1
    42    17    40    1
    43    12    41    1
    44    12    42    1
    45    12    43    1
    46    10    44    1
    47    27    45    1
    48    24    46    1
    49    14    47    1
    50    14    48    1
    51     4    49    1
    52    26    50    1
    53    15    51    1
    54    15    52    1
    55     8    53    1
    56     8    54    1
    57     7    55    1
    58     7    56    1
    59     7    57    1
@<TRIPOS>SUBSTRUCTURE
     1 RES1        1 GROUP             0 ****  ****    0  
@<TRIPOS>MOLECULE
1AQ1:A:STU299
    61    68     1     0     0
SMALL
NO_CHARGES
****
Generated from the CSD

@<TRIPOS>ATOM
     1 O1      26.7606  10.1247  62.8972   O.3       1 RES1   0.0000
     2 C2      28.1386  10.0797  63.2332   C.3       1 RES1   0.0000
     3 C3      29.0376  10.5357  62.0552   C.3       1 RES1   0.0000
     4 C4      28.1706  10.8277  60.8282   C.3       1 RES1   0.0000
     5 C5      27.2826   9.5877  60.5162   C.3       1 RES1   0.0000
     6 C6      26.2646   9.5397  61.7042   C.3       1 RES1   0.0000
     7 C7      25.0836  10.4097  61.3142   C.3       1 RES1   0.0000
     8 N8      25.8096   8.1538  62.0002   N.pl3     1 RES1   0.0000
     9 C9      26.5446   7.3788  62.9342   C.2       1 RES1   0.0000
    10 C10     27.6346   7.6308  63.6642   C.2       1 RES1   0.0000
    11 C11     28.2196   6.6558  64.5302   C.2       1 RES1   0.0000
    12 C12     27.5036   5.3698  64.5672   C.2       1 RES1   0.0000
    13 C13     26.4356   5.1309  63.8502   C.2       1 RES1   0.0000
    14 C14     25.8806   6.0928  62.9752   C.2       1 RES1   0.0000
    15 C15     24.7695   6.1378  62.1032   C.2       1 RES1   0.0000
    16 C16     24.7275   7.4248  61.4842   C.2       1 RES1   0.0000
    17 C17     23.7515   7.7158  60.5812   C.2       1 RES1   0.0000
    18 C18     22.8035   6.7868  60.2702   C.2       1 RES1   0.0000
    19 C19     22.8215   5.4888  60.8612   C.2       1 RES1   0.0000
    20 C20     23.8215   5.2039  61.7602   C.2       1 RES1   0.0000
    21 C21     25.9416   3.6909  64.0772   C.3       1 RES1   0.0000
    22 N22     26.9436   3.2669  65.0342   N.am      1 RES1   0.0000
    23 C23     27.8876   4.1609  65.3632   C.2       1 RES1   0.0000
    24 O24     28.8176   4.0189  66.1322   O.2       1 RES1   0.0000
    25 C25     29.3756   7.2068  65.1162   C.2       1 RES1   0.0000
    26 C26     29.4966   8.5298  64.6042   C.2       1 RES1   0.0000
    27 C27     30.5077   9.4067  65.0082   C.2       1 RES1   0.0000
    28 C28     31.4257   8.9347  65.9182   C.2       1 RES1   0.0000
    29 C29     31.3237   7.6178  66.4242   C.2       1 RES1   0.0000
    30 C30     30.3097   6.7918  66.0392   C.2       1 RES1   0.0000
    31 N31     28.4916   8.7538  63.7282   N.pl3     1 RES1   0.0000
    32 O32     28.1556   8.4428  60.5772   O.3       1 RES1   0.0000
    33 C33     27.5896   7.3198  59.9312   C.3       1 RES1   0.0000
    34 N34     29.1136  11.1577  59.6162   N.3       1 RES1   0.0000
    35 C35     29.1626  12.6286  59.3842   C.3       1 RES1   0.0000
    36 H1      32.2371   9.5801  66.2514   H         1 RES1   0.0000
    37 H2      25.9704   3.0987  63.1638   H         1 RES1   0.0000
    38 H3      24.9368   3.6633  64.4961   H         1 RES1   0.0000
    39 H4      22.0191   7.0400  59.5584   H         1 RES1   0.0000
    40 H5      30.5664  10.4219  64.6186   H         1 RES1   0.0000
    41 H6      23.7278   8.6949  60.1051   H         1 RES1   0.0000
    42 H7      27.5326  11.6861  61.0332   H         1 RES1   0.0000
    43 H8      32.0676   7.2576  67.1332   H         1 RES1   0.0000
    44 H9      30.2376   5.7927  66.4663   H         1 RES1   0.0000
    45 H10     26.9316   2.3355  65.4373   H         1 RES1   0.0000
    46 H11     23.8636   4.2138  62.2117   H         1 RES1   0.0000
    47 H12     28.2953  10.7823  64.0504   H         1 RES1   0.0000
    48 H13     29.7492   9.7467  61.8163   H         1 RES1   0.0000
    49 H14     29.5776  11.4375  62.3399   H         1 RES1   0.0000
    50 H15     22.0662   4.7463  60.6080   H         1 RES1   0.0000
    51 H16     26.7839   9.6724  59.5518   H         1 RES1   0.0000
    52 H17     27.4075   7.5570  58.8841   H         1 RES1   0.0000
    53 H18     28.2768   6.4777  59.9985   H         1 RES1   0.0000
    54 H19     26.6485   7.0597  60.4135   H         1 RES1   0.0000
    55 H20     28.7603  10.6989  58.7826   H         1 RES1   0.0000
    56 H21     29.5434  13.1243  60.2759   H         1 RES1   0.0000
    57 H22     29.8194  12.8416  58.5420   H         1 RES1   0.0000
    58 H23     28.1608  12.9951  59.1650   H         1 RES1   0.0000
    59 H24     25.4231  11.4319  61.1538   H         1 RES1   0.0000
    60 H25     24.6380  10.0270  60.3972   H         1 RES1   0.0000
    61 H26     24.3424  10.3944  62.1119   H         1 RES1   0.0000
@<TRIPOS>BOND
     1     1     2    1
     2     1     6    1
     3     2     3    1
     4     2    31    1
     5     3     4    1
     6     4     5    1
     7     4    34    1
     8     5     6    1
     9     5    32    1
    10     6     7    1
    11     6     8    1
    12     8     9    1
    13     8    16    1
    14     9    10    2
    15     9    14    1
    16    10    11    1
    17    10    31    1
    18    11    12    2
    19    11    25    1
    20    12    13    1
    21    12    23    1
    22    13    14    2
    23    13    21    1
    24    14    15    1
    25    15    16    2
    26    15    20    1
    27    16    17    1
    28    17    18    2
    29    18    19    1
    30    19    20    2
    31    21    22    1
    32    22    23   am
    33    23    24    2
    34    25    26    2
    35    25    30    1
    36    26    27    1
    37    26    31    1
    38    27    28    2
    39    28    29    1
    40    29    30    2
    41    32    33    1
    42    34    35    1
    43    28    36    1
    44    21    37    1
    45    21    38    1
    46    18    39    1
    47    27    40    1
    48    17    41    1
    49     4    42    1
    50    29    43    1
    51    30    44    1
    52    22    45    1
    53    20    46    1
    54     2    47    1
    55     3    48    1
    56     3    49    1
    57    19    50    1
    58     5    51    1
    59    33    52    1
    60    33    53    1
    61    33    54    1
    62    34    55    1
    63    35    56    1
    64    35    57    1
    65    35    58    1
    66     7    59    1
    67     7    60    1
    68     7    61    1
@<TRIPOS>SUBSTRUCTURE
     1 RES1        1 GROUP             0 ****  ****    0  
@<TRIPOS>MOLECULE
2DS1:A:1CD501
    51    56     1     0     0
SMALL
NO_CHARGES
****
Generated from the CSD

@<TRIPOS>ATOM
     1 C1      27.3265   7.4840  60.5370   C.3       1 RES1   0.0000
     2 N2      25.5705   9.2400  60.6440   N.3       1 RES1   0.0000
     3 C3      25.7935  10.5310  61.3511   C.3       1 RES1   0.0000
     4 C4      27.2455  10.4650  61.8401   C.3       1 RES1   0.0000
     5 C5      27.6685   9.9920  60.4570   C.3       1 RES1   0.0000
     6 C6      26.8255   8.8170  59.9680   C.3       1 RES1   0.0000
     7 C7      28.5855   7.9710  64.1791   C.2       1 RES1   0.0000
     8 C8      28.5905   9.2570  63.4931   C.2       1 RES1   0.0000
     9 C9      29.7355   7.5760  65.0171   C.2       1 RES1   0.0000
    10 N10     27.4915   7.1590  63.9781   N.2       1 RES1   0.0000
    11 C11     29.7325  10.1850  63.5861   C.2       1 RES1   0.0000
    12 O12     27.3835   9.4420  62.8221   O.3       1 RES1   0.0000
    13 C13     30.8564   8.5120  65.1091   C.2       1 RES1   0.0000
    14 N14     29.5615   6.3400  65.5761   N.am      1 RES1   0.0000
    15 C15     27.2645   5.8880  64.4811   C.2       1 RES1   0.0000
    16 C16     30.8844   9.8080  64.4051   C.2       1 RES1   0.0000
    17 C17     28.4485   5.4760  65.3951   C.2       1 RES1   0.0000
    18 C18     26.1705   5.0470  63.9061   C.2       1 RES1   0.0000
    19 O19     28.3685   4.3850  65.9521   O.2       1 RES1   0.0000
    20 C20     25.1315   5.6830  62.9511   C.2       1 RES1   0.0000
    21 C21     26.2465   3.5930  64.0481   C.2       1 RES1   0.0000
    22 C22     24.2406   4.7990  62.1431   C.2       1 RES1   0.0000
    23 N23     24.7836   6.9390  62.5401   N.pl3     1 RES1   0.0000
    24 C24     25.3435   2.7830  63.2461   C.2       1 RES1   0.0000
    25 C25     23.4736   5.7370  61.3100   C.2       1 RES1   0.0000
    26 C26     24.3626   3.3440  62.3071   C.2       1 RES1   0.0000
    27 N27     23.8236   7.0420  61.5661   N.am      1 RES1   0.0000
    28 C28     23.2776   8.2420  60.9160   C.3       1 RES1   0.0000
    29 O29     22.6256   5.3910  60.4840   O.2       1 RES1   0.0000
    30 C30     24.2926   8.8970  59.9810   C.3       1 RES1   0.0000
    31 H1      27.6643  11.4268  62.1326   H         1 RES1   0.0000
    32 H2      26.7282   8.7968  58.8835   H         1 RES1   0.0000
    33 H3      26.5692   6.7165  60.3842   H         1 RES1   0.0000
    34 H4      28.2447   7.1943  60.0282   H         1 RES1   0.0000
    35 H5      27.5214   7.5946  61.6027   H         1 RES1   0.0000
    36 H6      25.1096  10.6304  62.1927   H         1 RES1   0.0000
    37 H7      25.6558  11.3698  60.6704   H         1 RES1   0.0000
    38 H8      23.7228   2.6781  61.7298   H         1 RES1   0.0000
    39 H9      25.3973   1.7000  63.3472   H         1 RES1   0.0000
    40 H10     25.2190   7.7639  62.9403   H         1 RES1   0.0000
    41 H11     24.5023   8.2089  59.1634   H         1 RES1   0.0000
    42 H12     23.8547   9.8111  59.5828   H         1 RES1   0.0000
    43 H13     22.9928   8.9595  61.6841   H         1 RES1   0.0000
    44 H14     22.3983   7.9601  60.3387   H         1 RES1   0.0000
    45 H15     31.7445  10.4701  64.4932   H         1 RES1   0.0000
    46 H16     30.3037   6.0058  66.1824   H         1 RES1   0.0000
    47 H17     31.7107   8.2388  65.7267   H         1 RES1   0.0000
    48 H18     29.7186  11.1351  63.0540   H         1 RES1   0.0000
    49 H19     28.7121   9.6831  60.4957   H         1 RES1   0.0000
    50 H20     27.5601  10.8177  59.7553   H         1 RES1   0.0000
    51 H21     26.9568   3.1318  64.7327   H         1 RES1   0.0000
@<TRIPOS>BOND
     1     1     6    1
     2     2     3    1
     3     2     6    1
     4     2    30    1
     5     3     4    1
     6     4     5    1
     7     4    12    1
     8     5     6    1
     9     7     8    2
    10     7     9    1
    11     7    10    1
    12     8    11    1
    13     8    12    1
    14     9    13    2
    15     9    14    1
    16    10    15    2
    17    11    16    2
    18    13    16    1
    19    14    17   am
    20    15    17    1
    21    15    18    1
    22    17    19    2
    23    18    20    2
    24    18    21    1
    25    20    22    1
    26    20    23    1
    27    21    24    2
    28    22    25    1
    29    22    26    2
    30    23    27    1
    31    24    26    1
    32    25    27   am
    33    25    29    2
    34    27    28    1
    35    28    30    1
    36     4    31    1
    37     6    32    1
    38     1    33    1
    39     1    34    1
    40     1    35    1
    41     3    36    1
    42     3    37    1
    43    26    38    1
    44    24    39    1
    45    23    40    1
    46    30    41    1
    47    30    42    1
    48    28    43    1
    49    28    44    1
    50    16    45    1
    51    14    46    1
    52    13    47    1
    53    11    48    1
    54     5    49    1
    55     5    50    1
    56    21    51    1
@<TRIPOS>SUBSTRUCTURE
     1 RES1        1 GROUP             0 ****  ****    0  
@<TRIPOS>MOLECULE
6YL1:A:OWN301
    44    46     1     0     0
SMALL
NO_CHARGES
****
Generated from the CSD

@<TRIPOS>ATOM
     1 N1      23.6594   4.7930  62.2149   N.am      1 RES1   0.0000
     2 C2      27.2905   4.9610  64.3219   C.2       1 RES1   0.0000
     3 O3      21.4784   4.2550  62.0709   O.2       1 RES1   0.0000
     4 C4      25.6755   5.9790  62.8819   C.2       1 RES1   0.0000
     5 C5      26.1365   8.1930  61.9149   C.3       1 RES1   0.0000
     6 C6      25.4075   9.2770  61.1309   C.3       1 RES1   0.0000
     7 C7      26.3235  10.4810  60.9360   C.3       1 RES1   0.0000
     8 C8      26.1225   9.4870  59.8020   C.3       1 RES1   0.0000
     9 C9      28.5805   5.0470  65.0749   C.2       1 RES1   0.0000
    10 C10     30.4446   6.4390  65.9259   C.3       1 RES1   0.0000
    11 C11     23.7844   5.4590  60.9300   C.3       1 RES1   0.0000
    12 C12     22.4794   4.3990  62.7329   C.2       1 RES1   0.0000
    13 C13     22.3124   4.1480  64.2159   C.3       1 RES1   0.0000
    14 C14     21.8704   2.7120  64.4169   C.3       1 RES1   0.0000
    15 C15     24.8645   4.7480  62.9389   C.2       1 RES1   0.0000
    16 C16     25.3365   3.6740  63.6979   C.2       1 RES1   0.0000
    17 C17     26.5415   3.7900  64.3719   C.2       1 RES1   0.0000
    18 C18     26.8715   6.0510  63.5639   C.2       1 RES1   0.0000
    19 C19     23.9814   6.9250  61.3409   C.3       1 RES1   0.0000
    20 N20     25.2435   7.0430  62.0759   N.pl3     1 RES1   0.0000
    21 O21     29.0365   4.0760  65.6729   O.2       1 RES1   0.0000
    22 O22     29.2875   6.3140  65.1169   O.3       1 RES1   0.0000
    23 H1      27.2792  10.5279  61.4560   H         1 RES1   0.0000
    24 H2      25.8997  11.4816  60.8645   H         1 RES1   0.0000
    25 H3      31.1961   5.7225  65.5977   H         1 RES1   0.0000
    26 H4      30.8425   7.4488  65.8368   H         1 RES1   0.0000
    27 H5      30.1842   6.2418  66.9648   H         1 RES1   0.0000
    28 H6      25.5552   9.7766  58.9187   H         1 RES1   0.0000
    29 H7      26.9347   8.8229  59.5102   H         1 RES1   0.0000
    30 H8      27.4821   6.9511  63.5102   H         1 RES1   0.0000
    31 H9      26.4185   8.5769  62.8942   H         1 RES1   0.0000
    32 H10     27.0307   7.8886  61.3731   H         1 RES1   0.0000
    33 H11     22.8830   5.3346  60.3317   H         1 RES1   0.0000
    34 H12     24.6434   5.0861  60.3741   H         1 RES1   0.0000
    35 H13     24.3286   9.4000  61.2134   H         1 RES1   0.0000
    36 H14     23.1561   7.2410  61.9773   H         1 RES1   0.0000
    37 H15     24.0153   7.5531  60.4519   H         1 RES1   0.0000
    38 H16     26.9101   2.9462  64.9533   H         1 RES1   0.0000
    39 H17     24.7609   2.7516  63.7593   H         1 RES1   0.0000
    40 H18     22.6243   2.0398  64.0098   H         1 RES1   0.0000
    41 H19     21.7458   2.5161  65.4809   H         1 RES1   0.0000
    42 H20     20.9235   2.5485  63.9044   H         1 RES1   0.0000
    43 H21     21.5597   4.8234  64.6198   H         1 RES1   0.0000
    44 H22     23.2604   4.3147  64.7252   H         1 RES1   0.0000
@<TRIPOS>BOND
     1     1    11    1
     2     1    12   am
     3     1    15    1
     4     2     9    1
     5     2    17    1
     6     2    18    2
     7     3    12    2
     8     4    15    2
     9     4    18    1
    10     4    20    1
    11     5     6    1
    12     5    20    1
    13     6     7    1
    14     6     8    1
    15     7     8    1
    16     9    21    2
    17     9    22    1
    18    10    22    1
    19    11    19    1
    20    12    13    1
    21    13    14    1
    22    15    16    1
    23    16    17    2
    24    19    20    1
    25     7    23    1
    26     7    24    1
    27    10    25    1
    28    10    26    1
    29    10    27    1
    30     8    28    1
    31     8    29    1
    32    18    30    1
    33     5    31    1
    34     5    32    1
    35    11    33    1
    36    11    34    1
    37     6    35    1
    38    19    36    1
    39    19    37    1
    40    17    38    1
    41    16    39    1
    42    14    40    1
    43    14    41    1
    44    14    42    1
    45    13    43    1
    46    13    44    1
@<TRIPOS>SUBSTRUCTURE
     1 RES1        1 GROUP             0 ****  ****    0  
@<TRIPOS>MOLECULE
2A4L:A:RRC300
    52    54     1     0     0
SMALL
NO_CHARGES
****
Generated from the CSD

@<TRIPOS>ATOM
     1 O1      26.4092  11.3593  60.6332   O.3       1 RES1   0.0000
     2 C2      25.6901  10.5082  61.5612   C.3       1 RES1   0.0000
     3 C3      25.9612   9.0172  61.3502   C.3       1 RES1   0.0000
     4 C4      25.9992   8.6992  59.8382   C.3       1 RES1   0.0000
     5 C5      25.3011   7.4012  59.3912   C.3       1 RES1   0.0000
     6 N6      27.3022   8.6422  62.0002   N.pl3     1 RES1   0.0000
     7 C7      27.6552   7.7492  62.9352   C.2       1 RES1   0.0000
     8 N8      26.7592   6.7822  63.0973   N.2       1 RES1   0.0000
     9 C9      27.0232   5.8191  64.0053   C.2       1 RES1   0.0000
    10 N10     26.2442   4.7251  64.2823   N.pl3     1 RES1   0.0000
    11 C11     24.9711   4.4421  63.6043   C.3       1 RES1   0.0000
    12 C12     25.2301   4.1991  62.0992   C.3       1 RES1   0.0000
    13 C13     24.0141   5.6441  63.8013   C.3       1 RES1   0.0000
    14 C14     26.9402   4.0331  65.2393   C.2       1 RES1   0.0000
    15 C15     28.1582   5.7731  64.7713   C.2       1 RES1   0.0000
    16 N16     28.0722   4.6221  65.5463   N.2       1 RES1   0.0000
    17 N17     28.7992   7.7552  63.6703   N.2       1 RES1   0.0000
    18 C18     29.1222   6.8092  64.6063   C.2       1 RES1   0.0000
    19 N19     30.2862   6.9222  65.2203   N.pl3     1 RES1   0.0000
    20 C20     31.0362   8.1502  64.8923   C.3       1 RES1   0.0000
    21 C21     31.4162   8.8152  66.2293   C.2       1 RES1   0.0000
    22 C22     31.7382   8.0122  67.3163   C.2       1 RES1   0.0000
    23 C23     32.0852   8.5992  68.5284   C.2       1 RES1   0.0000
    24 C24     32.0962   9.9862  68.6084   C.2       1 RES1   0.0000
    25 C25     31.7952  10.8092  67.5243   C.2       1 RES1   0.0000
    26 C26     31.4522  10.2022  66.3213   C.2       1 RES1   0.0000
    27 H1      25.9015   3.3502  61.9788   H         1 RES1   0.0000
    28 H2      24.2864   3.9895  61.5977   H         1 RES1   0.0000
    29 H3      25.6847   5.0865  61.6612   H         1 RES1   0.0000
    30 H4      24.4643   6.5400  63.3763   H         1 RES1   0.0000
    31 H5      23.0683   5.4409  63.3011   H         1 RES1   0.0000
    32 H6      23.8368   5.7965  64.8649   H         1 RES1   0.0000
    33 H7      24.5225   3.5506  64.0401   H         1 RES1   0.0000
    34 H8      32.3512  10.4508  69.5597   H         1 RES1   0.0000
    35 H9      31.8277  11.8938  67.6167   H         1 RES1   0.0000
    36 H10     31.2120  10.8125  65.4519   H         1 RES1   0.0000
    37 H11     28.0845   9.1844  61.6476   H         1 RES1   0.0000
    38 H12     24.2466   7.4452  59.6595   H         1 RES1   0.0000
    39 H13     25.3968   7.2906  58.3121   H         1 RES1   0.0000
    40 H14     25.7663   6.5499  59.8860   H         1 RES1   0.0000
    41 H15     27.0445   8.6321  59.5404   H         1 RES1   0.0000
    42 H16     25.5248   9.5274  59.3139   H         1 RES1   0.0000
    43 H17     32.3416   7.9877  69.3922   H         1 RES1   0.0000
    44 H18     25.1644   8.4398  61.8167   H         1 RES1   0.0000
    45 H19     24.6229  10.6863  61.4375   H         1 RES1   0.0000
    46 H20     25.9873  10.7734  62.5747   H         1 RES1   0.0000
    47 H21     26.1417  11.1355  59.7035   H         1 RES1   0.0000
    48 H22     31.7190   6.9277  67.2197   H         1 RES1   0.0000
    49 H23     30.4141   8.8226  64.3034   H         1 RES1   0.0000
    50 H24     31.9347   7.9009  64.3297   H         1 RES1   0.0000
    51 H25     26.5947   3.1045  65.6913   H         1 RES1   0.0000
    52 H26     30.6365   6.2213  65.8654   H         1 RES1   0.0000
@<TRIPOS>BOND
     1     1     2    1
     2     2     3    1
     3     3     4    1
     4     3     6    1
     5     4     5    1
     6     6     7    1
     7     7     8    2
     8     7    17    1
     9     8     9    1
    10     9    10    1
    11     9    15    2
    12    10    11    1
    13    10    14    1
    14    11    12    1
    15    11    13    1
    16    14    16    2
    17    15    16    1
    18    15    18    1
    19    17    18    2
    20    18    19    1
    21    19    20    1
    22    20    21    1
    23    21    22    2
    24    21    26    1
    25    22    23    1
    26    23    24    2
    27    24    25    1
    28    25    26    2
    29    12    27    1
    30    12    28    1
    31    12    29    1
    32    13    30    1
    33    13    31    1
    34    13    32    1
    35    11    33    1
    36    24    34    1
    37    25    35    1
    38    26    36    1
    39     6    37    1
    40     5    38    1
    41     5    39    1
    42     5    40    1
    43     4    41    1
    44     4    42    1
    45    23    43    1
    46     3    44    1
    47     2    45    1
    48     2    46    1
    49     1    47    1
    50    22    48    1
    51    20    49    1
    52    20    50    1
    53    14    51    1
    54    19    52    1
@<TRIPOS>SUBSTRUCTURE
     1 RES1        1 GROUP             0 ****  ****    0  
@<TRIPOS>MOLECULE
4BGH:A:3I61001
    39    40     1     0     0
SMALL
NO_CHARGES
****
Generated from the CSD

@<TRIPOS>ATOM
     1 O1      25.3091   7.9143  60.7432   O.3       1 RES1   0.0000
     2 C2      26.6851   7.6572  60.7302   C.3       1 RES1   0.0000
     3 C3      27.0341   7.5402  62.2192   C.3       1 RES1   0.0000
     4 C4      26.5041   8.7183  63.0172   C.3       1 RES1   0.0000
     5 N5      26.4451   6.3102  62.8042   N.pl3     1 RES1   0.0000
     6 C6      27.1391   5.5802  63.7272   C.2       1 RES1   0.0000
     7 N7      28.2791   6.1352  64.2322   N.2       1 RES1   0.0000
     8 C8      26.7071   4.3061  64.1232   C.2       1 RES1   0.0000
     9 Br9     25.0601   3.7101  63.3312   Br        1 RES1   0.0000
    10 C10     27.4801   3.5971  65.0301   C.2       1 RES1   0.0000
    11 N11     28.5961   4.2291  65.4691   N.2       1 RES1   0.0000
    12 C12     28.9881   5.4492  65.0821   C.2       1 RES1   0.0000
    13 N13     30.0521   5.9852  65.6321   N.pl3     1 RES1   0.0000
    14 C14     30.6602   7.1142  65.4691   C.2       1 RES1   0.0000
    15 C15     31.8142   7.3352  66.2811   C.2       1 RES1   0.0000
    16 C16     32.5712   8.4863  66.0791   C.2       1 RES1   0.0000
    17 C17     30.3251   8.0313  64.4941   C.2       1 RES1   0.0000
    18 C18     31.0892   9.1573  64.3252   C.2       1 RES1   0.0000
    19 C19     32.2422   9.3843  65.1111   C.2       1 RES1   0.0000
    20 S20     33.2752  10.7654  64.7921   S.o2      1 RES1   0.0000
    21 O21     34.4132  10.1853  64.0322   O.2       1 RES1   0.0000
    22 O22     33.9342  11.3024  66.0591   O.2       1 RES1   0.0000
    23 N23     32.5542  11.8744  63.9222   N.pl3     1 RES1   0.0000
    24 H1      30.4877   5.3904  66.3297   H         1 RES1   0.0000
    25 H2      32.0978   6.6144  67.0466   H         1 RES1   0.0000
    26 H3      33.4417   8.6711  66.7068   H         1 RES1   0.0000
    27 H4      29.4560   7.8613  63.8603   H         1 RES1   0.0000
    28 H5      30.8027   9.8899  63.5721   H         1 RES1   0.0000
    29 H6      27.2084   2.5980  65.3676   H         1 RES1   0.0000
    30 H7      33.0497  12.7238  63.6707   H         1 RES1   0.0000
    31 H8      31.5964  11.7360  63.6160   H         1 RES1   0.0000
    32 H9      25.1342   8.7551  61.2417   H         1 RES1   0.0000
    33 H10     27.2310   8.4763  60.2644   H         1 RES1   0.0000
    34 H11     26.9040   6.7294  60.2038   H         1 RES1   0.0000
    35 H12     28.1170   7.4991  62.3263   H         1 RES1   0.0000
    36 H13     25.5196   6.0089  62.5164   H         1 RES1   0.0000
    37 H14     25.4201   8.7625  62.9227   H         1 RES1   0.0000
    38 H15     26.7725   8.5968  64.0656   H         1 RES1   0.0000
    39 H16     26.9396   9.6406  62.6356   H         1 RES1   0.0000
@<TRIPOS>BOND
     1     1     2    1
     2     2     3    1
     3     3     4    1
     4     3     5    1
     5     5     6    1
     6     6     7    2
     7     6     8    1
     8     7    12    1
     9     8     9    1
    10     8    10    2
    11    10    11    1
    12    11    12    2
    13    12    13    1
    14    13    14    1
    15    14    15    2
    16    14    17    1
    17    15    16    1
    18    16    19    2
    19    17    18    2
    20    18    19    1
    21    19    20    1
    22    20    21    2
    23    20    22    2
    24    20    23    1
    25    13    24    1
    26    15    25    1
    27    16    26    1
    28    17    27    1
    29    18    28    1
    30    10    29    1
    31    23    30    1
    32    23    31    1
    33     1    32    1
    34     2    33    1
    35     2    34    1
    36     3    35    1
    37     5    36    1
    38     4    37    1
    39     4    38    1
    40     4    39    1
@<TRIPOS>SUBSTRUCTURE
     1 RES1        1 GROUP             0 ****  ****    0  
@<TRIPOS>MOLECULE
1DM2:A:HMD400
    29    31     1     0     0
SMALL
NO_CHARGES
****
Generated from the CSD

@<TRIPOS>ATOM
     1 Br1     30.3408   8.4188  64.3284   Br        1 RES1   0.0000
     2 O2      28.2969   3.9499  66.4604   O.2       1 RES1   0.0000
     3 O3      22.9889   5.2519  61.5684   O.2       1 RES1   0.0000
     4 N4      28.9348   6.1189  64.9704   N.pl3     1 RES1   0.0000
     5 N5      26.7629   3.1839  64.9394   N.am      1 RES1   0.0000
     6 N6      23.6629   7.1099  60.3904   N.2       1 RES1   0.0000
     7 N7      25.5529   7.5879  61.5064   N.pl3     1 RES1   0.0000
     8 N8      24.9619   8.9588  59.7224   N.pl3     1 RES1   0.0000
     9 C9      28.9088   7.2479  64.2584   C.2       1 RES1   0.0000
    10 C10     27.7519   7.3539  63.5414   C.2       1 RES1   0.0000
    11 C11     26.9999   6.1829  63.8244   C.2       1 RES1   0.0000
    12 C12     27.7939   5.4309  64.7444   C.2       1 RES1   0.0000
    13 C13     27.6309   4.1409  65.4314   C.2       1 RES1   0.0000
    14 C14     25.9059   3.2549  63.7424   C.3       1 RES1   0.0000
    15 C15     24.9869   4.4639  63.7294   C.3       1 RES1   0.0000
    16 C16     25.6639   5.7219  63.1924   C.2       1 RES1   0.0000
    17 C17     25.0749   6.4279  62.1364   C.2       1 RES1   0.0000
    18 C18     23.7939   6.1729  61.3614   C.2       1 RES1   0.0000
    19 C19     24.7229   7.9198  60.5004   C.2       1 RES1   0.0000
    20 H1      29.6893   5.8249  65.5824   H         1 RES1   0.0000
    21 H2      26.7088   2.3210  65.4712   H         1 RES1   0.0000
    22 H3      25.7911   9.5247  59.8719   H         1 RES1   0.0000
    23 H4      24.3165   9.1920  58.9746   H         1 RES1   0.0000
    24 H5      26.3917   8.0958  61.7682   H         1 RES1   0.0000
    25 H6      25.2935   2.3553  63.7025   H         1 RES1   0.0000
    26 H7      26.5454   3.2980  62.8620   H         1 RES1   0.0000
    27 H8      27.4634   8.1727  62.8839   H         1 RES1   0.0000
    28 H9      24.6533   4.6572  64.7479   H         1 RES1   0.0000
    29 H10     24.1258   4.2385  63.1020   H         1 RES1   0.0000
@<TRIPOS>BOND
     1     1     9    1
     2     2    13    2
     3     3    18    2
     4     4     9    1
     5     4    12    1
     6     5    13   am
     7     5    14    1
     8     6    18    1
     9     6    19    2
    10     7    17    1
    11     7    19    1
    12     8    19    1
    13     9    10    2
    14    10    11    1
    15    11    12    2
    16    11    16    1
    17    12    13    1
    18    14    15    1
    19    15    16    1
    20    16    17    2
    21    17    18    1
    22     4    20    1
    23     5    21    1
    24     8    22    1
    25     8    23    1
    26     7    24    1
    27    14    25    1
    28    14    26    1
    29    10    27    1
    30    15    28    1
    31    15    29    1
@<TRIPOS>SUBSTRUCTURE
     1 RES1        1 GROUP             0 ****  ****    0  
@<TRIPOS>MOLECULE
1YKR:A:628299
    44    47     1     0     0
SMALL
NO_CHARGES
****
Generated from the CSD

@<TRIPOS>ATOM
     1 C1      25.5665   4.5440  62.7717   C.2       1 RES1   0.0000
     2 C2      26.2405   5.6310  63.3767   C.2       1 RES1   0.0000
     3 N3      27.2075   5.4230  64.2517   N.pl3     1 RES1   0.0000
     4 C4      27.5925   4.1770  64.6427   C.2       1 RES1   0.0000
     5 C5      26.9875   2.9970  64.1157   C.2       1 RES1   0.0000
     6 C6      25.9405   3.2070  63.1607   C.2       1 RES1   0.0000
     7 C7      27.8935   6.3840  64.8747   C.2       1 RES1   0.0000
     8 C8      28.7815   5.6340  65.6797   C.2       1 RES1   0.0000
     9 N9      28.6205   4.2760  65.5537   N.2       1 RES1   0.0000
    10 S10     33.6894  10.6280  64.8767   S.o2      1 RES1   0.0000
    11 C11     32.5034   9.4000  65.2687   C.2       1 RES1   0.0000
    12 C12     32.4264   8.9560  66.6277   C.2       1 RES1   0.0000
    13 C13     31.4954   7.9760  66.9867   C.2       1 RES1   0.0000
    14 C14     30.6284   7.4300  65.9957   C.2       1 RES1   0.0000
    15 C15     30.7044   7.8790  64.6147   C.2       1 RES1   0.0000
    16 C16     31.6504   8.8740  64.2467   C.2       1 RES1   0.0000
    17 C17     24.5016   4.8070  61.7597   C.2       1 RES1   0.0000
    18 C18     24.3106   6.2290  61.2397   C.2       1 RES1   0.0000
    19 C19     25.3135   6.8990  60.3717   C.2       1 RES1   0.0000
    20 C20     25.0985   8.2090  59.9017   C.2       1 RES1   0.0000
    21 C21     23.9386   8.9290  60.2687   C.2       1 RES1   0.0000
    22 C22     22.9486   8.3410  61.1057   C.2       1 RES1   0.0000
    23 C23     23.1236   7.0170  61.6057   C.2       1 RES1   0.0000
    24 O24     23.7966   3.9020  61.3057   O.2       1 RES1   0.0000
    25 O25     34.3234  10.9830  66.1207   O.2       1 RES1   0.0000
    26 N26     29.7035   6.4390  66.4957   N.pl3     1 RES1   0.0000
    27 Cl27    26.4605   6.2620  59.9777   Cl        1 RES1   0.0000
    28 Cl28    22.1516   6.4790  62.4107   Cl        1 RES1   0.0000
    29 N29     32.9434  11.9690  64.3147   N.pl3     1 RES1   0.0000
    30 O30     34.5174  10.1530  63.7967   O.2       1 RES1   0.0000
    31 H1      33.4920  12.7780  64.0412   H         1 RES1   0.0000
    32 H2      31.9315  11.9929  64.2392   H         1 RES1   0.0000
    33 H3      29.6886   6.2846  67.4988   H         1 RES1   0.0000
    34 H4      22.0537   8.9047  61.3653   H         1 RES1   0.0000
    35 H5      23.8007   9.9467  59.9064   H         1 RES1   0.0000
    36 H6      25.8349   8.6732  59.2474   H         1 RES1   0.0000
    37 H7      31.7240   9.2254  63.2186   H         1 RES1   0.0000
    38 H8      30.0387   7.4543  63.8648   H         1 RES1   0.0000
    39 H9      31.4332   7.6318  68.0180   H         1 RES1   0.0000
    40 H10     33.0906   9.3800  67.3794   H         1 RES1   0.0000
    41 H11     27.7948   7.4649  64.7859   H         1 RES1   0.0000
    42 H12     25.4243   2.3522  62.7262   H         1 RES1   0.0000
    43 H13     27.3018   1.9998  64.4202   H         1 RES1   0.0000
    44 H14     25.9587   6.6506  63.1179   H         1 RES1   0.0000
@<TRIPOS>BOND
     1     1     2    2
     2     1     6    1
     3     1    17    1
     4     2     3    1
     5     3     4    1
     6     3     7    1
     7     4     5    1
     8     4     9    2
     9     5     6    2
    10     7     8    2
    11     8     9    1
    12     8    26    1
    13    10    11    1
    14    10    25    2
    15    10    29    1
    16    10    30    2
    17    11    12    2
    18    11    16    1
    19    12    13    1
    20    13    14    2
    21    14    15    1
    22    14    26    1
    23    15    16    2
    24    17    18    1
    25    17    24    2
    26    18    19    2
    27    18    23    1
    28    19    20    1
    29    19    27    1
    30    20    21    2
    31    21    22    1
    32    22    23    2
    33    23    28    1
    34    29    31    1
    35    29    32    1
    36    26    33    1
    37    22    34    1
    38    21    35    1
    39    20    36    1
    40    16    37    1
    41    15    38    1
    42    13    39    1
    43    12    40    1
    44     7    41    1
    45     6    42    1
    46     5    43    1
    47     2    44    1
@<TRIPOS>SUBSTRUCTURE
     1 RES1        1 GROUP             0 ****  ****    0  
@<TRIPOS>MOLECULE
3RMF:A:20Z496
    45    48     1     0     0
SMALL
NO_CHARGES
****
Generated from the CSD

@<TRIPOS>ATOM
     1 N1      28.4779   4.2000  65.3569   N.pl3     1 RES1   0.0000
     2 N2      29.7099   6.0200  65.9229   N.2       1 RES1   0.0000
     3 N3      26.9729   2.6420  64.5299   N.pl3     1 RES1   0.0000
     4 N4      32.4849  11.9030  64.1489   N.pl3     1 RES1   0.0000
     5 C5      26.7849   4.8840  63.8469   C.2       1 RES1   0.0000
     6 C6      27.3849   3.8450  64.5729   C.2       1 RES1   0.0000
     7 C7      28.7209   5.4870  65.2449   C.2       1 RES1   0.0000
     8 C8      30.4489   7.0600  65.6589   C.2       1 RES1   0.0000
     9 C9      25.6699   4.7700  62.9899   C.2       1 RES1   0.0000
    10 C10     25.1439   5.8750  62.3259   C.2       1 RES1   0.0000
    11 C11     23.7389   6.1470  62.4079   C.2       1 RES1   0.0000
    12 C12     23.1809   7.2770  61.7479   C.2       1 RES1   0.0000
    13 C13     24.0059   8.1680  60.9909   C.2       1 RES1   0.0000
    14 C14     25.4339   7.9050  60.8939   C.2       1 RES1   0.0000
    15 C15     25.9799   6.7600  61.5609   C.2       1 RES1   0.0000
    16 C16     31.5389   7.3170  66.5449   C.2       1 RES1   0.0000
    17 C17     32.3949   8.4190  66.3359   C.2       1 RES1   0.0000
    18 C18     32.1799   9.2930  65.2369   C.2       1 RES1   0.0000
    19 C19     31.0969   9.0620  64.3409   C.2       1 RES1   0.0000
    20 C20     30.2349   7.9560  64.5469   C.2       1 RES1   0.0000
    21 C21     23.4619   9.3170  60.3269   C.2       1 RES1   0.0000
    22 C22     24.3049  10.1920  59.5799   C.2       1 RES1   0.0000
    23 C23     25.6979   9.9320  59.4849   C.2       1 RES1   0.0000
    24 C24     26.2589   8.7960  60.1369   C.2       1 RES1   0.0000
    25 O25     25.1259   3.6850  62.8449   O.2       1 RES1   0.0000
    26 O26     34.3849  10.2030  64.1609   O.2       1 RES1   0.0000
    27 O27     33.7829  11.1640  66.2509   O.2       1 RES1   0.0000
    28 S28     27.6449   6.3440  64.1859   S.3       1 RES1   0.0000
    29 S29     33.2839  10.6700  64.9759   S.o2      1 RES1   0.0000
    30 H1      27.0472   6.5566  61.4870   H         1 RES1   0.0000
    31 H2      31.7115   6.6546  67.3919   H         1 RES1   0.0000
    32 H3      33.2231   8.6001  67.0194   H         1 RES1   0.0000
    33 H4      29.4062   7.7809  63.8624   H         1 RES1   0.0000
    34 H5      22.3947   9.5234  60.3937   H         1 RES1   0.0000
    35 H6      23.8794  11.0616  59.0812   H         1 RES1   0.0000
    36 H7      30.9317   9.7336  63.4997   H         1 RES1   0.0000
    37 H8      26.3382  10.6019  58.9129   H         1 RES1   0.0000
    38 H9      27.3279   8.6037  60.0582   H         1 RES1   0.0000
    39 H10     23.0930   5.4829  62.9804   H         1 RES1   0.0000
    40 H11     29.0116   3.5570  65.9331   H         1 RES1   0.0000
    41 H12     22.1109   7.4666  61.8198   H         1 RES1   0.0000
    42 H13     32.9755  12.7617  63.9205   H         1 RES1   0.0000
    43 H14     31.5133  11.7866  63.8794   H         1 RES1   0.0000
    44 H15     26.1739   2.3995  63.9528   H         1 RES1   0.0000
    45 H16     27.4432   1.9248  65.0727   H         1 RES1   0.0000
@<TRIPOS>BOND
     1     1     6    1
     2     1     7    1
     3     2     7    2
     4     2     8    1
     5     3     6    1
     6     4    29    1
     7     5     6    2
     8     5     9    1
     9     5    28    1
    10     7    28    1
    11     8    16    2
    12     8    20    1
    13     9    10    1
    14     9    25    2
    15    10    11    2
    16    10    15    1
    17    11    12    1
    18    12    13    2
    19    13    14    1
    20    13    21    1
    21    14    15    2
    22    14    24    1
    23    16    17    1
    24    17    18    2
    25    18    19    1
    26    18    29    1
    27    19    20    2
    28    21    22    2
    29    22    23    1
    30    23    24    2
    31    26    29    2
    32    27    29    2
    33    15    30    1
    34    16    31    1
    35    17    32    1
    36    20    33    1
    37    21    34    1
    38    22    35    1
    39    19    36    1
    40    23    37    1
    41    24    38    1
    42    11    39    1
    43     1    40    1
    44    12    41    1
    45     4    42    1
    46     4    43    1
    47     3    44    1
    48     3    45    1
@<TRIPOS>SUBSTRUCTURE
     1 RES1        1 GROUP             0 ****  ****    0  
@<TRIPOS>MOLECULE
5OO1:A:9Z2301
    30    31     1     0     0
SMALL
NO_CHARGES
****
Generated from the CSD

@<TRIPOS>ATOM
     1 N1      28.4109   8.5321  63.0164   N.2       1 RES1   0.0000
     2 C2      22.3569   1.7920  61.9474   C.3       1 RES1   0.0000
     3 C3      24.5699   6.3271  62.4254   C.2       1 RES1   0.0000
     4 C4      25.6669   7.1811  62.6154   C.2       1 RES1   0.0000
     5 C5      25.7409   4.5061  63.5284   C.2       1 RES1   0.0000
     6 O6      22.0959   5.2131  61.7404   O.2       1 RES1   0.0000
     7 C7      22.4679   4.1971  62.2344   C.2       1 RES1   0.0000
     8 C8      21.5299   3.0460  62.1804   C.3       1 RES1   0.0000
     9 N9      23.6509   4.0391  62.7864   N.am      1 RES1   0.0000
    10 C10     24.6139   4.9851  62.8874   C.2       1 RES1   0.0000
    11 C11     26.7989   5.3601  63.7204   C.2       1 RES1   0.0000
    12 C12     26.7849   6.6611  63.2814   C.2       1 RES1   0.0000
    13 C13     28.0339   7.3771  63.6174   C.2       1 RES1   0.0000
    14 N14     28.7829   6.8201  64.6224   N.2       1 RES1   0.0000
    15 C15     29.9469   7.3781  65.0234   C.2       1 RES1   0.0000
    16 C16     30.3649   8.5641  64.3914   C.2       1 RES1   0.0000
    17 C17     29.5669   9.1271  63.3714   C.2       1 RES1   0.0000
    18 H1      30.5438   6.9232  65.8125   H         1 RES1   0.0000
    19 H2      27.6821   4.9918  64.2403   H         1 RES1   0.0000
    20 H3      31.2968   9.0440  64.6868   H         1 RES1   0.0000
    21 H4      23.8612   3.1241  63.1720   H         1 RES1   0.0000
    22 H5      29.8853  10.0411  62.8722   H         1 RES1   0.0000
    23 H6      20.9876   2.9641  63.1212   H         1 RES1   0.0000
    24 H7      20.8220   3.1814  61.3640   H         1 RES1   0.0000
    25 H8      25.7887   3.4743  63.8735   H         1 RES1   0.0000
    26 H9      23.6786   6.6961  61.9201   H         1 RES1   0.0000
    27 H10     23.0652   1.6672  62.7651   H         1 RES1   0.0000
    28 H11     21.6982   0.9260  61.9023   H         1 RES1   0.0000
    29 H12     22.8997   1.8845  61.0079   H         1 RES1   0.0000
    30 H13     25.6501   8.2098  62.2586   H         1 RES1   0.0000
@<TRIPOS>BOND
     1     1    13    2
     2     1    17    1
     3     2     8    1
     4     3     4    2
     5     3    10    1
     6     4    12    1
     7     5    10    2
     8     5    11    1
     9     6     7    2
    10     7     8    1
    11     7     9   am
    12     9    10    1
    13    11    12    2
    14    12    13    1
    15    13    14    1
    16    14    15    2
    17    15    16    1
    18    16    17    2
    19    15    18    1
    20    11    19    1
    21    16    20    1
    22     9    21    1
    23    17    22    1
    24     8    23    1
    25     8    24    1
    26     5    25    1
    27     3    26    1
    28     2    27    1
    29     2    28    1
    30     2    29    1
    31     4    30    1
@<TRIPOS>SUBSTRUCTURE
     1 RES1        1 GROUP             0 ****  ****    0  
@<TRIPOS>MOLECULE
3LFS:A:A07299
    36    38     1     0     0
SMALL
NO_CHARGES
****
Generated from the CSD

@<TRIPOS>ATOM
     1 C1      25.3535   7.0980  61.3983   C.2       1 RES1   0.0000
     2 Cl2     23.9036   4.4360  61.4443   Cl        1 RES1   0.0000
     3 C3      26.1825   7.3610  60.3014   C.2       1 RES1   0.0000
     4 C4      25.7715   8.2410  59.2954   C.2       1 RES1   0.0000
     5 C5      24.5256   8.8690  59.3844   C.2       1 RES1   0.0000
     6 C6      23.7016   8.6230  60.4884   C.2       1 RES1   0.0000
     7 C7      24.1086   7.7300  61.4873   C.2       1 RES1   0.0000
     8 C8      25.2275   4.9110  62.4563   C.2       1 RES1   0.0000
     9 C9      25.7165   3.9970  63.3913   C.2       1 RES1   0.0000
    10 C10     26.7605   4.3630  64.2453   C.2       1 RES1   0.0000
    11 C11     27.3285   5.6300  64.1643   C.2       1 RES1   0.0000
    12 C12     26.8615   6.5360  63.2003   C.2       1 RES1   0.0000
    13 C13     25.7825   6.1980  62.3733   C.2       1 RES1   0.0000
    14 N14     27.4415   3.6850  65.1653   N.2       1 RES1   0.0000
    15 N15     28.3035   4.3990  65.6983   N.2       1 RES1   0.0000
    16 C16     28.3595   5.5870  65.1033   C.2       1 RES1   0.0000
    17 N17     29.2075   6.5470  65.5283   N.2       1 RES1   0.0000
    18 C18     29.3575   7.8070  65.0903   C.2       1 RES1   0.0000
    19 C19     30.4205   8.6160  65.8453   C.3       1 RES1   0.0000
    20 C20     31.8074   8.5500  65.1923   C.3       1 RES1   0.0000
    21 C21     31.7574   8.7980  63.6793   C.3       1 RES1   0.0000
    22 O22     28.7255   8.3430  64.1803   O.2       1 RES1   0.0000
    23 H1      31.3433   9.7867  63.4870   H         1 RES1   0.0000
    24 H2      32.7643   8.7400  63.2685   H         1 RES1   0.0000
    25 H3      31.1291   8.0434  63.2083   H         1 RES1   0.0000
    26 H4      32.2305   7.5625  65.3704   H         1 RES1   0.0000
    27 H5      32.4447   9.3057  65.6491   H         1 RES1   0.0000
    28 H6      30.4965   8.2262  66.8593   H         1 RES1   0.0000
    29 H7      30.1033   9.6572  65.8795   H         1 RES1   0.0000
    30 H8      27.3408   7.5081  63.0942   H         1 RES1   0.0000
    31 H9      25.2847   2.9993  63.4552   H         1 RES1   0.0000
    32 H10     23.4552   7.5272  62.3345   H         1 RES1   0.0000
    33 H11     22.7403   9.1279  60.5710   H         1 RES1   0.0000
    34 H12     27.1552   6.8764  60.2310   H         1 RES1   0.0000
    35 H13     26.4211   8.4369  58.4436   H         1 RES1   0.0000
    36 H14     24.1977   9.5469  58.5977   H         1 RES1   0.0000
@<TRIPOS>BOND
     1     1     3    2
     2     1     7    1
     3     1    13    1
     4     2     8    1
     5     3     4    1
     6     4     5    2
     7     5     6    1
     8     6     7    2
     9     8     9    2
    10     8    13    1
    11     9    10    1
    12    10    11    2
    13    10    14    1
    14    11    12    1
    15    11    16    1
    16    12    13    2
    17    14    15    2
    18    15    16    1
    19    16    17    2
    20    17    18    1
    21    18    19    1
    22    18    22    2
    23    19    20    1
    24    20    21    1
    25    21    23    1
    26    21    24    1
    27    21    25    1
    28    20    26    1
    29    20    27    1
    30    19    28    1
    31    19    29    1
    32    12    30    1
    33     9    31    1
    34     7    32    1
    35     6    33    1
    36     3    34    1
    37     4    35    1
    38     5    36    1
@<TRIPOS>SUBSTRUCTURE
     1 RES1        1 GROUP             0 ****  ****    0  
@<TRIPOS>MOLECULE
2R64:A:740500
    59    63     1     0     0
SMALL
NO_CHARGES
****
Generated from the CSD

@<TRIPOS>ATOM
     1 C1      31.5603  11.0277  67.9511   C.2       1 RES1   0.0000
     2 C2      31.2983  11.2117  66.5440   C.2       1 RES1   0.0000
     3 C3      31.3063  10.0587  65.6710   C.2       1 RES1   0.0000
     4 C4      31.5753   8.7648  66.2230   C.2       1 RES1   0.0000
     5 C5      31.8253   8.6258  67.5971   C.2       1 RES1   0.0000
     6 C6      31.8173   9.7357  68.4441   C.2       1 RES1   0.0000
     7 C7      31.5883   7.5288  65.3670   C.3       1 RES1   0.0000
     8 C8      30.1663   7.1358  64.8850   C.2       1 RES1   0.0000
     9 N9      29.8113   5.8708  65.2670   N.am      1 RES1   0.0000
    10 C10     28.6174   5.0059  65.0410   C.2       1 RES1   0.0000
    11 N11     28.4374   3.7749  65.5160   N.2       1 RES1   0.0000
    12 N12     27.2504   3.2619  65.1130   N.pl3     1 RES1   0.0000
    13 C13     26.5494   4.1319  64.3280   C.2       1 RES1   0.0000
    14 C14     25.3154   4.0759  63.6850   C.2       1 RES1   0.0000
    15 C15     24.8814   5.1839  62.9230   C.2       1 RES1   0.0000
    16 C16     25.7034   6.3608  62.8090   C.2       1 RES1   0.0000
    17 C17     26.9644   6.4128  63.4740   C.2       1 RES1   0.0000
    18 C18     27.4194   5.3259  64.2390   C.2       1 RES1   0.0000
    19 N19     25.2554   7.4198  62.0490   N.pl3     1 RES1   0.0000
    20 C20     25.2824   8.8288  62.4480   C.3       1 RES1   0.0000
    21 O21     29.5093   7.9178  64.2120   O.2       1 RES1   0.0000
    22 C22     24.6704   9.6737  61.2780   C.3       1 RES1   0.0000
    23 S23     24.6184   7.2188  60.5909   S.o2      1 RES1   0.0000
    24 C24     24.7394   8.8838  59.9699   C.3       1 RES1   0.0000
    25 O25     25.5004   6.2888  59.7939   O.2       1 RES1   0.0000
    26 O26     23.2115   6.8188  60.9200   O.2       1 RES1   0.0000
    27 C27     30.6433  12.0887  70.0501   C.3       1 RES1   0.0000
    28 N28     31.5763  12.1157  68.8611   N.pl3     1 RES1   0.0000
    29 C29     32.5573  13.2136  68.6331   C.3       1 RES1   0.0000
    30 C30     32.2923  14.5016  69.4461   C.3       1 RES1   0.0000
    31 C31     31.9203  14.1416  70.8921   C.3       1 RES1   0.0000
    32 C32     30.5623  13.4146  70.8721   C.3       1 RES1   0.0000
    33 H1      25.2326  10.6001  61.1699   H         1 RES1   0.0000
    34 H2      23.6307   9.9045  61.5054   H         1 RES1   0.0000
    35 H3      25.6805   9.0511  59.4482   H         1 RES1   0.0000
    36 H4      23.9094   9.1277  59.3085   H         1 RES1   0.0000
    37 H5      30.9772  11.2982  70.7206   H         1 RES1   0.0000
    38 H6      29.6431  11.8578  69.6865   H         1 RES1   0.0000
    39 H7      32.5372  13.4711  67.5752   H         1 RES1   0.0000
    40 H8      33.5467  12.8438  68.8980   H         1 RES1   0.0000
    41 H9      31.4725  15.0542  68.9895   H         1 RES1   0.0000
    42 H10     33.1897  15.1186  69.4473   H         1 RES1   0.0000
    43 H11     31.8443  15.0486  71.4901   H         1 RES1   0.0000
    44 H12     32.6816  13.4892  71.3173   H         1 RES1   0.0000
    45 H13     26.3092   9.1414  62.6322   H         1 RES1   0.0000
    46 H14     24.6926   8.9683  63.3528   H         1 RES1   0.0000
    47 H15     30.2692  13.1813  71.8946   H         1 RES1   0.0000
    48 H16     29.8166  14.0674  70.4207   H         1 RES1   0.0000
    49 H17     23.9174   5.1475  62.4178   H         1 RES1   0.0000
    50 H18     24.6913   3.1874  63.7686   H         1 RES1   0.0000
    51 H19     26.9196   2.3362  65.3657   H         1 RES1   0.0000
    52 H20     30.5220   5.4181  65.8328   H         1 RES1   0.0000
    53 H21     31.0974  12.2049  66.1451   H         1 RES1   0.0000
    54 H22     31.1100  10.1730  64.6060   H         1 RES1   0.0000
    55 H23     27.5817   7.3058  63.3876   H         1 RES1   0.0000
    56 H24     32.0284   7.6382  68.0085   H         1 RES1   0.0000
    57 H25     32.0137   9.5985  69.5064   H         1 RES1   0.0000
    58 H26     32.0026   6.7050  65.9464   H         1 RES1   0.0000
    59 H27     32.2159   7.7117  64.4961   H         1 RES1   0.0000
@<TRIPOS>BOND
     1     1     2    2
     2     1     6    1
     3     1    28    1
     4     2     3    1
     5     3     4    2
     6     4     5    1
     7     4     7    1
     8     5     6    2
     9     7     8    1
    10     8     9   am
    11     8    21    2
    12     9    10    1
    13    10    11    2
    14    10    18    1
    15    11    12    1
    16    12    13    1
    17    13    14    1
    18    13    18    2
    19    14    15    2
    20    15    16    1
    21    16    17    2
    22    16    19    1
    23    17    18    1
    24    19    20    1
    25    19    23    1
    26    20    22    1
    27    22    24    1
    28    23    24    1
    29    23    25    2
    30    23    26    2
    31    27    28    1
    32    27    32    1
    33    28    29    1
    34    29    30    1
    35    30    31    1
    36    31    32    1
    37    22    33    1
    38    22    34    1
    39    24    35    1
    40    24    36    1
    41    27    37    1
    42    27    38    1
    43    29    39    1
    44    29    40    1
    45    30    41    1
    46    30    42    1
    47    31    43    1
    48    31    44    1
    49    20    45    1
    50    20    46    1
    51    32    47    1
    52    32    48    1
    53    15    49    1
    54    14    50    1
    55    12    51    1
    56     9    52    1
    57     2    53    1
    58     3    54    1
    59    17    55    1
    60     5    56    1
    61     6    57    1
    62     7    58    1
    63     7    59    1
@<TRIPOS>SUBSTRUCTURE
     1 RES1        1 GROUP             0 ****  ****    0  
@<TRIPOS>MOLECULE
3S00:A:Z60461
    30    31     1     0     0
SMALL
NO_CHARGES
****
Generated from the CSD

@<TRIPOS>ATOM
     1 Cl1     25.3225   9.3828  58.6521   Cl        1 RES1   0.0000
     2 N2      28.6844   4.5959  65.4960   N.2       1 RES1   0.0000
     3 C3      27.7264   4.5069  64.5240   C.2       1 RES1   0.0000
     4 N4      27.2804   3.2449  64.4250   N.pl3     1 RES1   0.0000
     5 C5      27.3714   5.6289  63.8211   C.2       1 RES1   0.0000
     6 C6      26.3905   5.7489  62.7501   C.2       1 RES1   0.0000
     7 C7      26.2135   7.0289  62.0021   C.2       1 RES1   0.0000
     8 O8      25.7205   4.7489  62.4461   O.2       1 RES1   0.0000
     9 S9      28.3124   6.9139  64.4220   S.3       1 RES1   0.0000
    10 C10     29.0984   5.8469  65.5520   C.2       1 RES1   0.0000
    11 N11     30.0634   6.2269  66.4300   N.pl3     1 RES1   0.0000
    12 C12     30.5064   7.6059  66.6050   C.3       1 RES1   0.0000
    13 C13     31.8733   7.6569  67.2950   C.3       1 RES1   0.0000
    14 C14     32.3413   9.0888  67.4860   C.3       1 RES1   0.0000
    15 S15     25.7585   6.9499  60.3291   S.3       1 RES1   0.0000
    16 C16     25.7365   8.6378  60.1741   C.2       1 RES1   0.0000
    17 C17     26.0635   9.2848  61.3331   C.2       1 RES1   0.0000
    18 C18     26.3415   8.3598  62.3981   C.2       1 RES1   0.0000
    19 H1      29.7789   8.1396  67.2148   H         1 RES1   0.0000
    20 H2      30.5816   8.0830  65.6289   H         1 RES1   0.0000
    21 H3      31.6220   9.6267  68.1017   H         1 RES1   0.0000
    22 H4      33.3130   9.0906  67.9776   H         1 RES1   0.0000
    23 H5      32.4245   9.5760  66.5156   H         1 RES1   0.0000
    24 H6      32.5999   7.1248  66.6828   H         1 RES1   0.0000
    25 H7      31.7973   7.1755  68.2689   H         1 RES1   0.0000
    26 H8      30.5020   5.5088  66.9977   H         1 RES1   0.0000
    27 H9      26.1080  10.3679  61.4370   H         1 RES1   0.0000
    28 H10     26.6217   8.6655  63.4051   H         1 RES1   0.0000
    29 H11     26.5633   3.0119  63.7456   H         1 RES1   0.0000
    30 H12     27.6603   2.5235  65.0296   H         1 RES1   0.0000
@<TRIPOS>BOND
     1     1    16    1
     2     2     3    1
     3     2    10    2
     4     3     4    1
     5     3     5    2
     6     5     6    1
     7     5     9    1
     8     6     7    1
     9     6     8    2
    10     7    15    1
    11     7    18    2
    12     9    10    1
    13    10    11    1
    14    11    12    1
    15    12    13    1
    16    13    14    1
    17    15    16    1
    18    16    17    2
    19    17    18    1
    20    12    19    1
    21    12    20    1
    22    14    21    1
    23    14    22    1
    24    14    23    1
    25    13    24    1
    26    13    25    1
    27    11    26    1
    28    17    27    1
    29    18    28    1
    30     4    29    1
    31     4    30    1
@<TRIPOS>SUBSTRUCTURE
     1 RES1        1 GROUP             0 ****  ****    0  
@<TRIPOS>MOLECULE
2EXM:A:ZIP400
    28    29     1     0     0
SMALL
NO_CHARGES
****
Generated from the CSD

@<TRIPOS>ATOM
     1 C1      26.8542  11.4848  60.5882   C.3       1 RES1   0.0000
     2 C2      26.7282  10.9268  62.0102   C.2       1 RES1   0.0000
     3 C3      25.6832  11.6508  62.8352   C.3       1 RES1   0.0000
     4 C4      27.7732  10.2799  62.5892   C.2       1 RES1   0.0000
     5 C5      28.2093   8.8219  62.5332   C.3       1 RES1   0.0000
     6 N6      27.3042   7.7109  62.8972   N.pl3     1 RES1   0.0000
     7 C7      27.6182   6.6809  63.8482   C.2       1 RES1   0.0000
     8 C8      27.0062   5.3789  63.9232   C.2       1 RES1   0.0000
     9 N9      25.9872   4.7639  63.1642   N.2       1 RES1   0.0000
    10 C10     27.3712   4.4959  64.9202   C.2       1 RES1   0.0000
    11 N11     26.6782   3.3470  64.7952   N.pl3     1 RES1   0.0000
    12 C12     25.8302   3.5979  63.7642   C.2       1 RES1   0.0000
    13 N13     28.3923   4.8969  65.8482   N.2       1 RES1   0.0000
    14 C14     28.9493   6.0779  65.6722   C.2       1 RES1   0.0000
    15 N15     28.5813   6.9089  64.7532   N.2       1 RES1   0.0000
    16 H1      25.0697   2.8835  63.4524   H         1 RES1   0.0000
    17 H2      27.1365  12.5356  60.6343   H         1 RES1   0.0000
    18 H3      27.6166  10.9276  60.0458   H         1 RES1   0.0000
    19 H4      25.8991  11.3877  60.0742   H         1 RES1   0.0000
    20 H5      29.7622   6.3691  66.3357   H         1 RES1   0.0000
    21 H6      24.7110  11.5562  62.3536   H         1 RES1   0.0000
    22 H7      25.6392  11.2123  63.8311   H         1 RES1   0.0000
    23 H8      25.9485  12.7041  62.9137   H         1 RES1   0.0000
    24 H9      29.0723   8.7381  63.1921   H         1 RES1   0.0000
    25 H10     28.5180   8.6371  61.5054   H         1 RES1   0.0000
    26 H11     28.4113  10.9159  63.2010   H         1 RES1   0.0000
    27 H12     26.3972   7.6733  62.4432   H         1 RES1   0.0000
    28 H13     26.7684   2.4964  65.3416   H         1 RES1   0.0000
@<TRIPOS>BOND
     1     1     2    1
     2     2     3    1
     3     2     4    2
     4     4     5    1
     5     5     6    1
     6     6     7    1
     7     7     8    2
     8     7    15    1
     9     8     9    1
    10     8    10    1
    11     9    12    2
    12    10    11    1
    13    10    13    2
    14    11    12    1
    15    13    14    1
    16    14    15    2
    17    12    16    1
    18     1    17    1
    19     1    18    1
    20     1    19    1
    21    14    20    1
    22     3    21    1
    23     3    22    1
    24     3    23    1
    25     5    24    1
    26     5    25    1
    27     4    26    1
    28     6    27    1
    29    11    28    1
@<TRIPOS>SUBSTRUCTURE
     1 RES1        1 GROUP             0 ****  ****    0  
@<TRIPOS>MOLECULE
3QZF:A:X66299
    25    26     1     0     0
SMALL
NO_CHARGES
****
Generated from the CSD

@<TRIPOS>ATOM
     1 N1      30.3507   8.8002  64.3449   N.2       1 RES1   0.0000
     2 C2      29.3086   9.0012  63.4659   C.2       1 RES1   0.0000
     3 N3      29.2316  10.0863  62.7769   N.pl3     1 RES1   0.0000
     4 N4      28.3456   8.0332  63.3209   N.2       1 RES1   0.0000
     5 C5      28.4026   6.8602  64.0439   C.2       1 RES1   0.0000
     6 C6      27.4376   5.8812  63.8889   C.2       1 RES1   0.0000
     7 C7      27.4686   4.6071  64.6319   C.2       1 RES1   0.0000
     8 O8      28.4846   4.3341  65.5459   O.3       1 RES1   0.0000
     9 C9      26.4406   3.6311  64.4049   C.2       1 RES1   0.0000
    10 C10     25.3855   3.8711  63.4839   C.2       1 RES1   0.0000
    11 C11     25.3185   5.0931  62.7559   C.2       1 RES1   0.0000
    12 O12     24.3635   5.2541  61.9629   O.3       1 RES1   0.0000
    13 C13     26.3446   6.0902  62.9579   C.2       1 RES1   0.0000
    14 N14     29.4526   6.6892  64.9129   N.2       1 RES1   0.0000
    15 C15     30.4177   7.6302  65.0739   C.2       1 RES1   0.0000
    16 N16     31.3827   7.4142  65.8988   N.pl3     1 RES1   0.0000
    17 H1      31.4151   6.5476  66.4263   H         1 RES1   0.0000
    18 H2      32.1109   8.1105  66.0215   H         1 RES1   0.0000
    19 H3      26.2963   7.0224  62.3970   H         1 RES1   0.0000
    20 H4      23.5066   5.2045  62.4623   H         1 RES1   0.0000
    21 H5      24.6195   3.1119  63.3331   H         1 RES1   0.0000
    22 H6      28.4770   5.0200  66.2639   H         1 RES1   0.0000
    23 H7      26.4700   2.6883  64.9492   H         1 RES1   0.0000
    24 H8      28.4599  10.2244  62.1322   H         1 RES1   0.0000
    25 H9      29.9426  10.8035  62.8785   H         1 RES1   0.0000
@<TRIPOS>BOND
     1     1     2    2
     2     1    15    1
     3     2     3    1
     4     2     4    1
     5     4     5    2
     6     5     6    1
     7     5    14    1
     8     6     7    2
     9     6    13    1
    10     7     8    1
    11     7     9    1
    12     9    10    2
    13    10    11    1
    14    11    12    1
    15    11    13    2
    16    14    15    2
    17    15    16    1
    18    16    17    1
    19    16    18    1
    20    13    19    1
    21    12    20    1
    22    10    21    1
    23     8    22    1
    24     9    23    1
    25     3    24    1
    26     3    25    1
@<TRIPOS>SUBSTRUCTURE
     1 RES1        1 GROUP             0 ****  ****    0  
@<TRIPOS>MOLECULE
1PXO:A:CK7500
    51    52     1     0     0
SMALL
USER_CHARGES
****
Generated from the CSD

@<TRIPOS>ATOM
     1 N1      25.3304   8.2868  60.0152   N.pl3     1 RES1   0.0000
     2 C2      25.2644   7.0028  60.7772   C.2       1 RES1   0.0000
     3 N3      24.5264   5.8708  60.6862   N.2       1 RES1   0.0000
     4 C4      24.8284   4.9189  61.6392   C.2       1 RES1   0.0000
     5 C5      24.1194   3.5969  61.6792   C.3       1 RES1   0.0000
     6 S6      26.3424   7.0468  62.0542   S.3       1 RES1   0.0000
     7 C7      25.8474   5.5538  62.5832   C.2       1 RES1   0.0000
     8 C8      26.7624   5.0169  63.6251   C.2       1 RES1   0.0000
     9 N9      27.6784   5.8878  64.1621   N.2       1 RES1   0.0000
    10 C10     26.6794   3.7029  64.0561   C.2       1 RES1   0.0000
    11 C11     27.6124   3.3299  64.9831   C.2       1 RES1   0.0000
    12 N12     28.5273   4.2309  65.4531   N.2       1 RES1   0.0000
    13 C13     28.5523   5.4958  65.0861   C.2       1 RES1   0.0000
    14 N14     29.4883   6.2278  65.6571   N.pl3     1 RES1   0.0000
    15 C15     30.0163   7.4118  64.9741   C.2       1 RES1   0.0000
    16 C16     31.2703   7.9688  65.3521   C.2       1 RES1   0.0000
    17 C17     29.3533   8.0408  63.8721   C.2       1 RES1   0.0000
    18 C18     29.8803   9.1717  63.1641   C.2       1 RES1   0.0000
    19 N19     29.2793   9.8217  62.0782   N.pl3     1 RES1   1.0000
    20 O20     29.6033   9.5317  60.9052   O.3       1 RES1  -1.0000
    21 O21     28.4103  10.6977  62.2832   O.2       1 RES1   0.0000
    22 C22     31.1113   9.7027  63.5731   C.2       1 RES1   0.0000
    23 C23     31.8073   9.0907  64.6441   C.2       1 RES1   0.0000
    24 C24     30.0133   7.5008  65.5771   C.2       1 RES1   0.0000
    25 C25     30.0003   8.3008  64.4001   C.2       1 RES1   0.0000
    26 C26     30.6263   8.0858  66.7340   C.2       1 RES1   0.0000
    27 C27     31.1963   9.4017  66.7410   C.2       1 RES1   0.0000
    28 N28     31.7853  10.0537  67.8330   N.pl3     1 RES1   1.0000
    29 O29     32.2743   9.3947  68.7760   O.3       1 RES1  -1.0000
    30 O30     31.8143  11.3037  67.8610   O.2       1 RES1   0.0000
    31 C31     31.1543  10.1667  65.5671   C.2       1 RES1   0.0000
    32 C32     30.5603   9.6187  64.4051   C.2       1 RES1   0.0000
    33 H1      30.5284  10.2134  63.4934   H         1 RES1   0.0000
    34 H2      25.9920   9.0061  60.2892   H         1 RES1   0.0000
    35 H3      24.7136   8.4395  59.2237   H         1 RES1   0.0000
    36 H4      24.2826   3.0689  60.7408   H         1 RES1   0.0000
    37 H5      24.5086   3.0010  62.5034   H         1 RES1   0.0000
    38 H6      23.0525   3.7614  61.8223   H         1 RES1   0.0000
    39 H7      25.9230   3.0145  63.6822   H         1 RES1   0.0000
    40 H8      27.6271   2.3050  65.3509   H         1 RES1   0.0000
    41 H9      31.8245   7.5387  66.1851   H         1 RES1   0.0000
    42 H10     28.3934   7.6375  63.5529   H         1 RES1   0.0000
    43 H11     30.1002   5.8156  66.3542   H         1 RES1   0.0000
    44 H12     29.5970   7.2036  65.3997   H         1 RES1   0.0000
    45 H13     29.5821   6.5010  65.5980   H         1 RES1   0.0000
    46 H14     32.7791   9.4852  64.9373   H         1 RES1   0.0000
    47 H15     31.5278  10.5759  63.0731   H         1 RES1   0.0000
    48 H16     29.5597   7.9064  63.4857   H         1 RES1   0.0000
    49 H17     29.5860   6.5566  65.4931   H         1 RES1   0.0000
    50 H18     30.6607   7.5019  67.6526   H         1 RES1   0.0000
    51 H19     31.5740  11.1714  65.5494   H         1 RES1   0.0000
@<TRIPOS>BOND
     1     1     2    1
     2     2     3    2
     3     2     6    1
     4     3     4    1
     5     4     5    1
     6     4     7    2
     7     6     7    1
     8     7     8    1
     9     8     9    2
    10     8    10    1
    11     9    13    1
    12    10    11    2
    13    11    12    1
    14    12    13    2
    15    13    14    1
    16    15    16    2
    17    15    17    1
    18    24    25    2
    19    24    26    1
    20    16    23    1
    21    25    32    1
    22    17    18    2
    23    26    27    2
    24    18    19    1
    25    18    22    1
    26    27    28    1
    27    27    31    1
    28    19    20    1
    29    19    21    2
    30    28    29    1
    31    28    30    2
    32    22    23    2
    33    31    32    2
    34    32    33    1
    35     1    34    1
    36     1    35    1
    37     5    36    1
    38     5    37    1
    39     5    38    1
    40    10    39    1
    41    11    40    1
    42    16    41    1
    43    17    42    1
    44    14    43    1
    45    14    44    1
    46    24    45    1
    47    23    46    1
    48    22    47    1
    49    25    48    1
    50    15    49    1
    51    26    50    1
    52    31    51    1
@<TRIPOS>SUBSTRUCTURE
     1 RES1        1 GROUP             0 ****  ****    0  
@<TRIPOS>MOLECULE
2R3K:A:SCQ501
    38    41     1     0     0
SMALL
NO_CHARGES
****
Generated from the CSD

@<TRIPOS>ATOM
     1 C1      26.3199   4.2340  63.8821   C.2       1 RES1   0.0000
     2 C2      26.8699   5.4520  63.5631   C.2       1 RES1   0.0000
     3 N3      28.0849   5.5030  64.1801   N.pl3     1 RES1   0.0000
     4 N4      28.3169   4.3330  64.8921   N.2       1 RES1   0.0000
     5 C5      27.2409   3.5730  64.7021   C.2       1 RES1   0.0000
     6 C6      26.3789   6.5330  62.7561   C.2       1 RES1   0.0000
     7 C7      27.1699   7.6370  62.6241   C.2       1 RES1   0.0000
     8 C8      28.4469   7.6690  63.2861   C.2       1 RES1   0.0000
     9 C9      28.9049   6.5990  64.0641   C.2       1 RES1   0.0000
    10 N10     30.1209   6.5540  64.7151   N.pl3     1 RES1   0.0000
    11 C11     26.7319   8.8050  61.8111   C.2       1 RES1   0.0000
    12 C12     31.1619   7.5080  64.3441   C.3       1 RES1   0.0000
    13 C13     31.2289   8.5290  65.4260   C.2       1 RES1   0.0000
    14 C14     31.4299   8.1860  66.7670   C.2       1 RES1   0.0000
    15 N15     31.4629   9.0940  67.7440   N.2       1 RES1   0.0000
    16 C16     31.2849  10.3650  67.3620   C.2       1 RES1   0.0000
    17 N17     31.0529  10.8200  66.1180   N.2       1 RES1   0.0000
    18 C18     31.0349   9.8880  65.1580   C.2       1 RES1   0.0000
    19 C19     26.5999   8.7100  60.4142   C.2       1 RES1   0.0000
    20 C20     26.1759   9.8170  59.6642   C.2       1 RES1   0.0000
    21 C21     25.8829  11.0230  60.3032   C.2       1 RES1   0.0000
    22 C22     26.0119  11.1210  61.6911   C.2       1 RES1   0.0000
    23 C23     26.4299  10.0140  62.4361   C.2       1 RES1   0.0000
    24 Br24    24.6789   3.6150  63.3321   Br        1 RES1   0.0000
    25 H1      26.5207  10.0973  63.5181   H         1 RES1   0.0000
    26 H2      26.0753   9.7355  58.5829   H         1 RES1   0.0000
    27 H3      25.5551  11.8839  59.7224   H         1 RES1   0.0000
    28 H4      25.7866  12.0607  62.1932   H         1 RES1   0.0000
    29 H5      30.2894   5.8665  65.4425   H         1 RES1   0.0000
    30 H6      30.9117   7.9838  63.3970   H         1 RES1   0.0000
    31 H7      32.1198   6.9981  64.2523   H         1 RES1   0.0000
    32 H8      29.0758   8.5516  63.1788   H         1 RES1   0.0000
    33 H9      25.4082   6.4740  62.2660   H         1 RES1   0.0000
    34 H10     27.0979   2.5794  65.1243   H         1 RES1   0.0000
    35 H11     31.5648   7.1363  67.0238   H         1 RES1   0.0000
    36 H12     30.8626  10.1995  64.1288   H         1 RES1   0.0000
    37 H13     26.8283   7.7713  59.9117   H         1 RES1   0.0000
    38 H14     31.3336  11.1163  68.1489   H         1 RES1   0.0000
@<TRIPOS>BOND
     1     1     2    2
     2     1     5    1
     3     1    24    1
     4     2     3    1
     5     2     6    1
     6     3     4    1
     7     3     9    1
     8     4     5    2
     9     6     7    2
    10     7     8    1
    11     7    11    1
    12     8     9    2
    13     9    10    1
    14    10    12    1
    15    11    19    2
    16    11    23    1
    17    12    13    1
    18    13    14    2
    19    13    18    1
    20    14    15    1
    21    15    16    2
    22    16    17    1
    23    17    18    2
    24    19    20    1
    25    20    21    2
    26    21    22    1
    27    22    23    2
    28    23    25    1
    29    20    26    1
    30    21    27    1
    31    22    28    1
    32    10    29    1
    33    12    30    1
    34    12    31    1
    35     8    32    1
    36     6    33    1
    37     5    34    1
    38    14    35    1
    39    18    36    1
    40    19    37    1
    41    16    38    1
@<TRIPOS>SUBSTRUCTURE
     1 RES1        1 GROUP             0 ****  ****    0  
@<TRIPOS>MOLECULE
3S0O:A:50Z446
    32    33     1     0     0
SMALL
NO_CHARGES
****
Generated from the CSD

@<TRIPOS>ATOM
     1 N1      28.6233   4.3031  65.5249   N.2       1 RES1   0.0000
     2 C2      27.6473   4.1161  64.6139   C.2       1 RES1   0.0000
     3 N3      27.1173   2.8870  64.4279   N.pl3     1 RES1   0.0000
     4 C4      27.2793   5.2831  63.9169   C.2       1 RES1   0.0000
     5 C5      26.3334   5.4021  62.9189   C.2       1 RES1   0.0000
     6 C6      26.0434   6.7091  62.2299   C.2       1 RES1   0.0000
     7 C7      26.0774   9.1872  62.1739   C.2       1 RES1   0.0000
     8 N8      26.3504   7.9601  62.8419   N.2       1 RES1   0.0000
     9 C9      25.5084   9.1692  60.9179   C.2       1 RES1   0.0000
    10 C10     25.1974   7.9801  60.2949   C.2       1 RES1   0.0000
    11 C11     25.4544   6.7301  60.9289   C.2       1 RES1   0.0000
    12 O12     25.6364   4.3121  62.4969   O.3       1 RES1   0.0000
    13 S13     28.2043   6.6271  64.4629   S.3       1 RES1   0.0000
    14 C14     29.0243   5.5911  65.5569   C.2       1 RES1   0.0000
    15 N15     30.0203   6.0041  66.4139   N.2       1 RES1   0.0000
    16 C16     30.4813   7.3871  66.4499   C.3       1 RES1   0.0000
    17 C17     31.4132   7.6961  65.2979   C.3       1 RES1   0.0000
    18 C18     31.1032   8.7692  64.3329   C.3       1 RES1   0.0000
    19 H1      26.3826   2.7498  63.7412   H         1 RES1   0.0000
    20 H2      27.4539   2.1011  64.9749   H         1 RES1   0.0000
    21 H3      26.3168  10.1357  62.6525   H         1 RES1   0.0000
    22 H4      25.1285   3.9285  63.2591   H         1 RES1   0.0000
    23 H5      25.3015  10.1101  60.4101   H         1 RES1   0.0000
    24 H6      24.7484   7.9959  59.3029   H         1 RES1   0.0000
    25 H7      25.2036   5.7977  60.4252   H         1 RES1   0.0000
    26 H8      31.0091   7.5590  67.3868   H         1 RES1   0.0000
    27 H9      29.6181   8.0486  66.3929   H         1 RES1   0.0000
    28 H10     31.0288   9.7199  64.8588   H         1 RES1   0.0000
    29 H11     31.8954   8.8275  63.5880   H         1 RES1   0.0000
    30 H12     30.1567   8.5519  63.8400   H         1 RES1   0.0000
    31 H13     31.5052   6.7777  64.7199   H         1 RES1   0.0000
    32 H14     32.3772   7.9458  65.7386   H         1 RES1   0.0000
@<TRIPOS>BOND
     1     1     2    2
     2     1    14    1
     3     2     3    1
     4     2     4    1
     5     4     5    2
     6     4    13    1
     7     5     6    1
     8     5    12    1
     9     6     8    1
    10     6    11    2
    11     7     8    2
    12     7     9    1
    13     9    10    2
    14    10    11    1
    15    13    14    1
    16    14    15    2
    17    15    16    1
    18    16    17    1
    19    17    18    1
    20     3    19    1
    21     3    20    1
    22     7    21    1
    23    12    22    1
    24     9    23    1
    25    10    24    1
    26    11    25    1
    27    16    26    1
    28    16    27    1
    29    18    28    1
    30    18    29    1
    31    18    30    1
    32    17    31    1
    33    17    32    1
@<TRIPOS>SUBSTRUCTURE
     1 RES1        1 GROUP             0 ****  ****    0  
@<TRIPOS>MOLECULE
1GZ8:A:MBP1300
    30    31     1     0     0
SMALL
NO_CHARGES
****
Generated from the CSD

@<TRIPOS>ATOM
     1 C1      28.6332   6.1772  65.5218   C.2       1 RES1   0.0000
     2 C2      27.2831   4.5241  64.6838   C.2       1 RES1   0.0000
     3 C3      26.5991   5.4211  63.8018   C.2       1 RES1   0.0000
     4 C4      25.8781   9.9483  62.3918   C.2       1 RES1   0.0000
     5 O5      24.9501   9.5172  61.6688   O.2       1 RES1   0.0000
     6 C6      25.3441  12.2783  63.0378   C.3       1 RES1   0.0000
     7 C7      26.3611  11.3683  62.3788   C.3       1 RES1   0.0000
     8 C8      26.6861  11.8153  60.9678   C.3       1 RES1   0.0000
     9 N9      26.6721   3.3701  64.4128   N.pl3     1 RES1   0.0000
    10 N10     28.3022   4.8911  65.4938   N.2       1 RES1   0.0000
    11 N11     29.6362   6.5512  66.3278   N.pl3     1 RES1   0.0000
    12 N12     28.0102   7.0882  64.7128   N.2       1 RES1   0.0000
    13 C13     26.9971   6.8062  63.9198   C.2       1 RES1   0.0000
    14 O14     26.4181   7.7312  63.1598   O.3       1 RES1   0.0000
    15 C15     26.6431   9.0982  63.3688   C.3       1 RES1   0.0000
    16 N16     25.6521   4.7631  63.1078   N.2       1 RES1   0.0000
    17 C17     25.7171   3.5251  63.5068   C.2       1 RES1   0.0000
    18 H1      29.9143   7.5263  66.3729   H         1 RES1   0.0000
    19 H2      30.1178   5.8594  66.8932   H         1 RES1   0.0000
    20 H3      26.3307   9.3559  64.3797   H         1 RES1   0.0000
    21 H4      27.7069   9.3014  63.2547   H         1 RES1   0.0000
    22 H5      25.0734   2.7248  63.1447   H         1 RES1   0.0000
    23 H6      25.1915  11.9651  64.0696   H         1 RES1   0.0000
    24 H7      25.7095  13.3040  63.0201   H         1 RES1   0.0000
    25 H8      24.4005  12.2197  62.4973   H         1 RES1   0.0000
    26 H9      25.7926  11.7436  60.3494   H         1 RES1   0.0000
    27 H10     27.0338  12.8472  60.9849   H         1 RES1   0.0000
    28 H11     27.4655  11.1764  60.5551   H         1 RES1   0.0000
    29 H12     27.2787  11.4143  62.9634   H         1 RES1   0.0000
    30 H13     26.9089   2.4834  64.8464   H         1 RES1   0.0000
@<TRIPOS>BOND
     1     1    10    2
     2     1    11    1
     3     1    12    1
     4     2     3    2
     5     2     9    1
     6     2    10    1
     7     3    13    1
     8     3    16    1
     9     4     5    2
    10     4     7    1
    11     4    15    1
    12     6     7    1
    13     7     8    1
    14     9    17    1
    15    12    13    2
    16    13    14    1
    17    14    15    1
    18    16    17    2
    19    11    18    1
    20    11    19    1
    21    15    20    1
    22    15    21    1
    23    17    22    1
    24     6    23    1
    25     6    24    1
    26     6    25    1
    27     8    26    1
    28     8    27    1
    29     8    28    1
    30     7    29    1
    31     9    30    1
@<TRIPOS>SUBSTRUCTURE
     1 RES1        1 GROUP             0 ****  ****    0  
@<TRIPOS>MOLECULE
1PKD:A:UCN410
    62    69     1     0     0
SMALL
NO_CHARGES
****
Generated from the CSD

@<TRIPOS>ATOM
     1 O1      25.2895   2.8400  62.4888   O.3       1 RES1   0.0000
     2 C2      25.6005   3.7060  63.5868   C.3       1 RES1   0.0000
     3 N3      26.6755   3.2460  64.4738   N.am      1 RES1   0.0000
     4 C4      27.5135   4.2120  64.8698   C.2       1 RES1   0.0000
     5 O5      28.4124   4.1490  65.6818   O.2       1 RES1   0.0000
     6 C6      27.1325   5.4479  64.1758   C.2       1 RES1   0.0000
     7 C7      27.7025   6.7999  64.1648   C.2       1 RES1   0.0000
     8 C8      28.8574   7.4139  64.8258   C.2       1 RES1   0.0000
     9 C9      28.8644   8.8139  64.3738   C.2       1 RES1   0.0000
    10 C10     29.8604   9.6879  64.8278   C.2       1 RES1   0.0000
    11 C11     30.8264   9.1639  65.6988   C.2       1 RES1   0.0000
    12 C12     30.8104   7.8169  66.1098   C.2       1 RES1   0.0000
    13 C13     29.8284   6.9109  65.6748   C.2       1 RES1   0.0000
    14 N14     27.7665   9.0419  63.5108   N.pl3     1 RES1   0.0000
    15 C15     27.0585   7.8339  63.3478   C.2       1 RES1   0.0000
    16 C16     25.9035   7.5739  62.5948   C.2       1 RES1   0.0000
    17 N17     25.1275   8.2949  61.7498   N.pl3     1 RES1   0.0000
    18 C18     24.1065   7.6069  61.1859   C.2       1 RES1   0.0000
    19 C19     24.1915   6.2219  61.7078   C.2       1 RES1   0.0000
    20 C20     23.2775   5.1939  61.3039   C.2       1 RES1   0.0000
    21 C21     22.2636   5.5359  60.4119   C.2       1 RES1   0.0000
    22 C22     22.1416   6.8339  59.9029   C.2       1 RES1   0.0000
    23 C23     23.0325   7.8559  60.2539   C.2       1 RES1   0.0000
    24 C24     25.3605   6.1849  62.6158   C.2       1 RES1   0.0000
    25 C25     25.9475   5.1649  63.3748   C.2       1 RES1   0.0000
    26 C26     25.5015   9.7069  61.4358   C.3       1 RES1   0.0000
    27 O27     25.9815  10.3319  62.6398   O.3       1 RES1   0.0000
    28 C28     27.3835  10.3479  62.9588   C.3       1 RES1   0.0000
    29 C29     28.2734  10.7159  61.7548   C.3       1 RES1   0.0000
    30 C30     27.4315  10.8849  60.4819   C.3       1 RES1   0.0000
    31 N31     28.1984  11.1369  59.2759   N.3       1 RES1   0.0000
    32 C32     29.6384  11.0049  59.3669   C.3       1 RES1   0.0000
    33 C33     26.5345   9.6599  60.3079   C.3       1 RES1   0.0000
    34 O34     27.3145   8.4439  60.3549   O.3       1 RES1   0.0000
    35 C35     27.1525   7.5629  59.2409   C.3       1 RES1   0.0000
    36 C36     24.3125  10.5729  61.0179   C.3       1 RES1   0.0000
    37 H1      23.5820  10.6004  61.8251   H         1 RES1   0.0000
    38 H2      24.6568  11.5839  60.8052   H         1 RES1   0.0000
    39 H3      23.8520  10.1511  60.1258   H         1 RES1   0.0000
    40 H4      27.9970  12.0863  58.9789   H         1 RES1   0.0000
    41 H5      26.7800  11.7437  60.6365   H         1 RES1   0.0000
    42 H6      26.0228   9.7221  59.3486   H         1 RES1   0.0000
    43 H7      29.8916   9.9886  59.6653   H         1 RES1   0.0000
    44 H8      30.0847  11.2204  58.3972   H         1 RES1   0.0000
    45 H9      30.0212  11.7065  60.1066   H         1 RES1   0.0000
    46 H10     26.7751   2.2780  64.7624   H         1 RES1   0.0000
    47 H11     24.7046   3.7137  64.2058   H         1 RES1   0.0000
    48 H12     29.8836  10.7314  64.5171   H         1 RES1   0.0000
    49 H13     29.0041   9.9241  61.5964   H         1 RES1   0.0000
    50 H14     28.7910  11.6504  61.9665   H         1 RES1   0.0000
    51 H15     27.5417  11.0974  63.7329   H         1 RES1   0.0000
    52 H16     21.3290   7.0560  59.2128   H         1 RES1   0.0000
    53 H17     21.5486   4.7748  60.1031   H         1 RES1   0.0000
    54 H18     23.3728   4.1773  61.6826   H         1 RES1   0.0000
    55 H19     22.9140   8.8476  59.8198   H         1 RES1   0.0000
    56 H20     27.4425   8.0775  58.3260   H         1 RES1   0.0000
    57 H21     27.7814   6.6845  59.3783   H         1 RES1   0.0000
    58 H22     26.1102   7.2555  59.1698   H         1 RES1   0.0000
    59 H23     29.8310   5.8682  65.9889   H         1 RES1   0.0000
    60 H24     31.5862   7.4653  66.7884   H         1 RES1   0.0000
    61 H25     31.6136   9.8190  66.0690   H         1 RES1   0.0000
    62 H26     25.0046   1.9544  62.8361   H         1 RES1   0.0000
@<TRIPOS>BOND
     1     1     2    1
     2     2     3    1
     3     2    25    1
     4     3     4   am
     5     4     5    2
     6     4     6    1
     7     6     7    2
     8     6    25    1
     9     7     8    1
    10     7    15    1
    11     8     9    2
    12     8    13    1
    13     9    10    1
    14     9    14    1
    15    10    11    2
    16    11    12    1
    17    12    13    2
    18    14    15    1
    19    14    28    1
    20    15    16    2
    21    16    17    1
    22    16    24    1
    23    17    18    1
    24    17    26    1
    25    18    19    2
    26    18    23    1
    27    19    20    1
    28    19    24    1
    29    20    21    2
    30    21    22    1
    31    22    23    2
    32    24    25    2
    33    26    27    1
    34    26    33    1
    35    26    36    1
    36    27    28    1
    37    28    29    1
    38    29    30    1
    39    30    31    1
    40    30    33    1
    41    31    32    1
    42    33    34    1
    43    34    35    1
    44    36    37    1
    45    36    38    1
    46    36    39    1
    47    31    40    1
    48    30    41    1
    49    33    42    1
    50    32    43    1
    51    32    44    1
    52    32    45    1
    53     3    46    1
    54     2    47    1
    55    10    48    1
    56    29    49    1
    57    29    50    1
    58    28    51    1
    59    22    52    1
    60    21    53    1
    61    20    54    1
    62    23    55    1
    63    35    56    1
    64    35    57    1
    65    35    58    1
    66    13    59    1
    67    12    60    1
    68    11    61    1
    69     1    62    1
@<TRIPOS>SUBSTRUCTURE
     1 RES1        1 GROUP             0 ****  ****    0  
@<TRIPOS>MOLECULE
2R3F:A:SC8501
    50    54     1     0     0
SMALL
NO_CHARGES
****
Generated from the CSD

@<TRIPOS>ATOM
     1 C1      26.1488   4.1261  63.9176   C.2       1 RES1   0.0000
     2 C2      26.7138   5.3931  63.5816   C.2       1 RES1   0.0000
     3 N3      27.9638   5.4361  64.3156   N.pl3     1 RES1   0.0000
     4 N4      28.1608   4.3131  65.0576   N.2       1 RES1   0.0000
     5 C5      27.1018   3.5030  64.7886   C.2       1 RES1   0.0000
     6 N6      26.2808   6.4131  62.7856   N.pl3     1 RES1   0.0000
     7 C7      27.0788   7.4801  62.7116   C.3       1 RES1   0.0000
     8 C8      28.3598   7.5811  63.3656   C.2       1 RES1   0.0000
     9 C9      28.7968   6.5201  64.1846   C.2       1 RES1   0.0000
    10 N10     30.0088   6.4841  64.8326   N.pl3     1 RES1   0.0000
    11 C11     26.6648   8.5551  61.7766   C.2       1 RES1   0.0000
    12 C12     26.6658   8.6291  61.8946   C.2       1 RES1   0.0000
    13 C13     31.0308   7.4271  64.4266   C.3       1 RES1   0.0000
    14 C14     31.1488   8.5701  65.3716   C.2       1 RES1   0.0000
    15 C15     31.0568   9.8831  64.9056   C.2       1 RES1   0.0000
    16 C16     31.1568  10.9322  65.8426   C.2       1 RES1   0.0000
    17 N17     31.3148  10.7322  67.1635   N.2       1 RES1   0.0000
    18 C18     31.4258   9.4521  67.5945   C.2       1 RES1   0.0000
    19 C19     31.3278   8.3421  66.7356   C.2       1 RES1   0.0000
    20 C20     26.4238   8.1891  60.4456   C.2       1 RES1   0.0000
    21 C21     26.6158   9.8911  62.4866   C.2       1 RES1   0.0000
    22 C22     25.9778   9.1251  59.5286   C.2       1 RES1   0.0000
    23 C23     26.2358  10.9962  61.7366   C.2       1 RES1   0.0000
    24 C24     25.7968  10.4421  59.9186   C.2       1 RES1   0.0000
    25 C25     25.9028  10.8422  60.3956   C.2       1 RES1   0.0000
    26 C26     26.0268  10.8122  61.2446   C.2       1 RES1   0.0000
    27 C27     25.9678   9.5871  59.7996   C.2       1 RES1   0.0000
    28 C28     26.4568   9.8811  62.1806   C.2       1 RES1   0.0000
    29 C29     26.3398   8.4691  60.5496   C.2       1 RES1   0.0000
    30 Cl30    26.7258  10.3591  63.7636   Cl        1 RES1   0.0000
    31 Cl31    26.3908   6.9411  59.8426   Cl        1 RES1   0.0000
    32 Cl32    25.7458  12.4192  61.6996   Cl        1 RES1   0.0000
    33 Cl33    25.5618   9.4471  58.1656   Cl        1 RES1   0.0000
    34 H1      25.1957   3.7190  63.5832   H         1 RES1   0.0000
    35 H2      26.9906   2.4964  65.1890   H         1 RES1   0.0000
    36 H3      30.1828   5.8148  65.5755   H         1 RES1   0.0000
    37 H4      28.9812   8.4649  63.2288   H         1 RES1   0.0000
    38 H5      25.4026   6.3632  62.2791   H         1 RES1   0.0000
    39 H6      30.7799   7.8127  63.4396   H         1 RES1   0.0000
    40 H7      31.9877   6.9092  64.3815   H         1 RES1   0.0000
    41 H8      31.1034  11.9570  65.4782   H         1 RES1   0.0000
    42 H9      30.9117  10.0915  63.8466   H         1 RES1   0.0000
    43 H10     31.5989   9.2744  68.6549   H         1 RES1   0.0000
    44 H11     31.3903   7.3278  67.1271   H         1 RES1   0.0000
    45 H12     26.5887   7.1599  60.1301   H         1 RES1   0.0000
    46 H13     26.1987  11.9819  62.1981   H         1 RES1   0.0000
    47 H14     25.7695   8.8267  58.5022   H         1 RES1   0.0000
    48 H15     26.8749  10.0098  63.5376   H         1 RES1   0.0000
    49 H16     25.4757  11.1871  59.1921   H         1 RES1   0.0000
    50 H17     25.5904  11.7060  59.8106   H         1 RES1   0.0000
@<TRIPOS>BOND
     1     1     2    2
     2     1     5    1
     3     2     3    1
     4     2     6    1
     5     3     4    1
     6     3     9    1
     7     4     5    2
     8     6     7    1
     9     7     8    1
    10     7    11    1
    11     7    12    1
    12     8     9    2
    13     9    10    1
    14    10    13    1
    15    11    20    2
    16    11    28    1
    17    12    21    2
    18    12    29    1
    19    13    14    1
    20    14    15    2
    21    14    19    1
    22    15    16    1
    23    16    17    2
    24    17    18    1
    25    18    19    2
    26    20    22    1
    27    21    23    1
    28    22    24    2
    29    23    25    2
    30    24    26    1
    31    25    27    1
    32    26    28    2
    33    26    32    1
    34    27    29    2
    35    27    33    1
    36    28    30    1
    37    29    31    1
    38     1    34    1
    39     5    35    1
    40    10    36    1
    41     8    37    1
    42     6    38    1
    43    13    39    1
    44    13    40    1
    45    16    41    1
    46    15    42    1
    47    18    43    1
    48    19    44    1
    49    20    45    1
    50    23    46    1
    51    22    47    1
    52    21    48    1
    53    24    49    1
    54    25    50    1
@<TRIPOS>SUBSTRUCTURE
     1 RES1        1 GROUP             0 ****  ****    0  
@<TRIPOS>MOLECULE
2R3G:A:SC9501
    38    41     1     0     0
SMALL
NO_CHARGES
****
Generated from the CSD

@<TRIPOS>ATOM
     1 C1      31.4354   7.8988  66.5928   C.2       1 RES1   0.0000
     2 N2      30.4714   7.7228  65.6218   N.pl3     1 RES1   0.0000
     3 C3      30.6424   8.6868  64.6949   C.2       1 RES1   0.0000
     4 N4      31.6684   9.4998  65.0189   N.2       1 RES1   0.0000
     5 C5      32.1564   8.9978  66.1788   C.2       1 RES1   0.0000
     6 C6      29.4364   6.8528  65.5358   C.2       1 RES1   0.0000
     7 C7      28.5884   6.8858  64.4339   C.2       1 RES1   0.0000
     8 N8      28.7644   7.8548  63.4679   N.2       1 RES1   0.0000
     9 C9      29.7384   8.7388  63.5579   C.2       1 RES1   0.0000
    10 N10     29.9624   9.7228  62.6359   N.pl3     1 RES1   0.0000
    11 C11     29.1374   9.6608  61.4250   C.3       1 RES1   0.0000
    12 C12     27.9235  10.5158  61.6110   C.2       1 RES1   0.0000
    13 C13     28.0305  11.9117  61.7520   C.2       1 RES1   0.0000
    14 C14     26.8605  12.6657  61.9360   C.2       1 RES1   0.0000
    15 C15     25.6335  11.9947  61.9860   C.2       1 RES1   0.0000
    16 N16     25.5085  10.6548  61.8350   N.2       1 RES1   0.0000
    17 C17     26.6375   9.9558  61.6590   C.2       1 RES1   0.0000
    18 C18     27.5085   5.8819  64.1649   C.2       1 RES1   0.0000
    19 C19     27.4165   4.5889  64.7869   C.2       1 RES1   0.0000
    20 C20     26.4245   3.6839  64.4049   C.2       1 RES1   0.0000
    21 C21     25.5205   3.9989  63.3829   C.2       1 RES1   0.0000
    22 C22     25.5885   5.2549  62.7719   C.2       1 RES1   0.0000
    23 C23     26.5865   6.1729  63.1459   C.2       1 RES1   0.0000
    24 F24     28.2245   4.2029  65.7518   F         1 RES1   0.0000
    25 H1      28.8331   8.6309  61.2442   H         1 RES1   0.0000
    26 H2      29.7118  10.0243  60.5742   H         1 RES1   0.0000
    27 H3      26.6458   7.1319  62.6333   H         1 RES1   0.0000
    28 H4      24.8656   5.5235  62.0031   H         1 RES1   0.0000
    29 H5      24.7723   3.2733  63.0672   H         1 RES1   0.0000
    30 H6      26.3528   2.7208  64.9081   H         1 RES1   0.0000
    31 H7      26.5514   8.8762  61.5451   H         1 RES1   0.0000
    32 H8      24.7316  12.5810  62.1553   H         1 RES1   0.0000
    33 H9      26.9068  13.7490  62.0376   H         1 RES1   0.0000
    34 H10     29.0039  12.3988  61.7190   H         1 RES1   0.0000
    35 H11     30.6556  10.4501  62.7802   H         1 RES1   0.0000
    36 H12     29.2683   6.1270  66.3301   H         1 RES1   0.0000
    37 H13     33.0095   9.4101  66.7155   H         1 RES1   0.0000
    38 H14     31.5921   7.3008  67.4893   H         1 RES1   0.0000
@<TRIPOS>BOND
     1     1     2    1
     2     1     5    2
     3     2     3    1
     4     2     6    1
     5     3     4    2
     6     3     9    1
     7     4     5    1
     8     6     7    2
     9     7     8    1
    10     7    18    1
    11     8     9    2
    12     9    10    1
    13    10    11    1
    14    11    12    1
    15    12    13    2
    16    12    17    1
    17    13    14    1
    18    14    15    2
    19    15    16    1
    20    16    17    2
    21    18    19    2
    22    18    23    1
    23    19    20    1
    24    19    24    1
    25    20    21    2
    26    21    22    1
    27    22    23    2
    28    11    25    1
    29    11    26    1
    30    23    27    1
    31    22    28    1
    32    21    29    1
    33    20    30    1
    34    17    31    1
    35    15    32    1
    36    14    33    1
    37    13    34    1
    38    10    35    1
    39     6    36    1
    40     5    37    1
    41     1    38    1
@<TRIPOS>SUBSTRUCTURE
     1 RES1        1 GROUP             0 ****  ****    0  
@<TRIPOS>MOLECULE
1PYE:A:PM1700
    41    44     1     0     0
SMALL
NO_CHARGES
****
Generated from the CSD

@<TRIPOS>ATOM
     1 C1      25.8096   4.8792  62.9805   C.2       1 RES1   0.0000
     2 C2      26.6706   5.9582  63.3485   C.2       1 RES1   0.0000
     3 N3      27.6065   5.8792  64.3465   N.pl3     1 RES1   0.0000
     4 C4      27.7665   4.6392  65.0555   C.2       1 RES1   0.0000
     5 C5      26.9565   3.5391  64.7565   C.2       1 RES1   0.0000
     6 C6      25.9826   3.6501  63.7075   C.2       1 RES1   0.0000
     7 C7      28.5625   6.7672  64.8735   C.2       1 RES1   0.0000
     8 C8      29.2135   6.0412  65.9005   C.2       1 RES1   0.0000
     9 N9      28.7385   4.7862  65.9845   N.2       1 RES1   0.0000
    10 C10     28.9085   8.1753  64.5835   C.2       1 RES1   0.0000
    11 C11     28.2775   9.0183  63.5375   C.2       1 RES1   0.0000
    12 C12     27.0095   9.6653  63.7985   C.2       1 RES1   0.0000
    13 C13     26.3926  10.4884  62.7834   C.2       1 RES1   0.0000
    14 C14     27.0445  10.6604  61.5234   C.2       1 RES1   0.0000
    15 C15     28.2955  10.0164  61.2604   C.2       1 RES1   0.0000
    16 C16     28.9185   9.1943  62.2624   C.2       1 RES1   0.0000
    17 C17     24.7586   4.9752  61.8814   C.2       1 RES1   0.0000
    18 C18     24.5936   6.3042  61.1224   C.2       1 RES1   0.0000
    19 C19     23.3956   7.0763  61.3064   C.2       1 RES1   0.0000
    20 C20     23.1596   8.3243  60.6354   C.2       1 RES1   0.0000
    21 C21     24.1396   8.8383  59.7264   C.2       1 RES1   0.0000
    22 C22     25.3566   8.1223  59.4934   C.2       1 RES1   0.0000
    23 C23     25.5806   6.8742  60.1684   C.2       1 RES1   0.0000
    24 O24     24.0386   3.9831  61.6044   O.2       1 RES1   0.0000
    25 O25     29.8275   8.6853  65.2605   O.2       1 RES1   0.0000
    26 N26     30.2845   6.5522  66.7555   N.pl3     1 RES1   0.0000
    27 F27     22.4406   6.6592  62.1384   F         1 RES1   0.0000
    28 F28     26.7486   6.2742  59.8964   F         1 RES1   0.0000
    29 H1      30.6928   5.9562  67.4684   H         1 RES1   0.0000
    30 H2      30.6195   7.5028  66.6359   H         1 RES1   0.0000
    31 H3      26.1060   8.5200  58.8106   H         1 RES1   0.0000
    32 H4      23.9577   9.7794  59.2095   H         1 RES1   0.0000
    33 H5      22.2392   8.8773  60.8172   H         1 RES1   0.0000
    34 H6      29.8707   8.7076  62.0566   H         1 RES1   0.0000
    35 H7      28.7793  10.1501  60.2939   H         1 RES1   0.0000
    36 H8      26.5865  11.2855  60.7583   H         1 RES1   0.0000
    37 H9      25.4375  10.9743  62.9773   H         1 RES1   0.0000
    38 H10     26.5193   9.5316  64.7617   H         1 RES1   0.0000
    39 H11     25.3643   2.7891  63.4579   H         1 RES1   0.0000
    40 H12     27.0632   2.6091  65.3129   H         1 RES1   0.0000
    41 H13     26.5779   6.8972  62.8049   H         1 RES1   0.0000
@<TRIPOS>BOND
     1     1     2    2
     2     1     6    1
     3     1    17    1
     4     2     3    1
     5     3     4    1
     6     3     7    1
     7     4     5    1
     8     4     9    2
     9     5     6    2
    10     7     8    2
    11     7    10    1
    12     8     9    1
    13     8    26    1
    14    10    11    1
    15    10    25    2
    16    11    12    2
    17    11    16    1
    18    12    13    1
    19    13    14    2
    20    14    15    1
    21    15    16    2
    22    17    18    1
    23    17    24    2
    24    18    19    2
    25    18    23    1
    26    19    20    1
    27    19    27    1
    28    20    21    2
    29    21    22    1
    30    22    23    2
    31    23    28    1
    32    26    29    1
    33    26    30    1
    34    22    31    1
    35    21    32    1
    36    20    33    1
    37    16    34    1
    38    15    35    1
    39    14    36    1
    40    13    37    1
    41    12    38    1
    42     6    39    1
    43     5    40    1
    44     2    41    1
@<TRIPOS>SUBSTRUCTURE
     1 RES1        1 GROUP             0 ****  ****    0  
@<TRIPOS>MOLECULE
2R3O:A:2SC501
    42    45     1     0     0
SMALL
NO_CHARGES
****
Generated from the CSD

@<TRIPOS>ATOM
     1 C1      26.6324   4.6370  64.1798   C.2       1 RES1   0.0000
     2 C2      27.2834   5.8610  64.0378   C.2       1 RES1   0.0000
     3 N3      28.4524   5.7800  64.7678   N.pl3     1 RES1   0.0000
     4 N4      28.5924   4.5510  65.3648   N.2       1 RES1   0.0000
     5 C5      27.5044   3.8740  64.9818   C.2       1 RES1   0.0000
     6 N6      26.9304   6.9960  63.3398   N.2       1 RES1   0.0000
     7 C7      27.7744   8.0050  63.4048   C.2       1 RES1   0.0000
     8 C8      29.0464   7.9970  64.1728   C.2       1 RES1   0.0000
     9 C9      29.3634   6.8650  64.8328   C.2       1 RES1   0.0000
    10 N10     30.5054   6.6720  65.5788   N.pl3     1 RES1   0.0000
    11 C11     27.4814   9.2660  62.6478   C.2       1 RES1   0.0000
    12 C12     31.7483   7.4000  65.5388   C.3       1 RES1   0.0000
    13 C13     31.8063   8.4600  66.5889   C.2       1 RES1   0.0000
    14 C14     32.0503   8.1200  67.9129   C.2       1 RES1   0.0000
    15 N15     32.1453   9.0140  68.9269   N.2       1 RES1   0.0000
    16 C16     31.9593  10.3160  68.6059   C.2       1 RES1   0.0000
    17 C17     31.6903  10.7570  67.3129   C.2       1 RES1   0.0000
    18 C18     31.6373   9.8140  66.2988   C.2       1 RES1   0.0000
    19 C19     26.1495   9.5870  62.3768   C.2       1 RES1   0.0000
    20 C20     25.8415  10.7560  61.6588   C.2       1 RES1   0.0000
    21 C21     26.8654  11.5950  61.2078   C.2       1 RES1   0.0000
    22 C22     28.2034  11.2790  61.4788   C.2       1 RES1   0.0000
    23 C23     28.5124  10.1110  62.1978   C.2       1 RES1   0.0000
    24 C24     25.3115   4.2360  63.6238   C.3       1 RES1   0.0000
    25 O25     25.3645   3.9330  62.2298   O.3       1 RES1   0.0000
    26 H1      27.3121   2.8391  65.2611   H         1 RES1   0.0000
    27 H2      29.6964   8.8703  64.2014   H         1 RES1   0.0000
    28 H3      30.4658   5.9114  66.2497   H         1 RES1   0.0000
    29 H4      31.8513   7.8674  64.5606   H         1 RES1   0.0000
    30 H5      32.5700   6.7029  65.6964   H         1 RES1   0.0000
    31 H6      32.1735   7.0648  68.1523   H         1 RES1   0.0000
    32 H7      25.3502   8.9325  62.7213   H         1 RES1   0.0000
    33 H8      24.6081   5.0534  63.7752   H         1 RES1   0.0000
    34 H9      24.9630   3.3535  64.1582   H         1 RES1   0.0000
    35 H10     29.0008  11.9356  61.1338   H         1 RES1   0.0000
    36 H11     31.5262  11.8132  67.1044   H         1 RES1   0.0000
    37 H12     32.0235  11.0575  69.4009   H         1 RES1   0.0000
    38 H13     29.5513   9.8600  62.4067   H         1 RES1   0.0000
    39 H14     26.6225  12.4952  60.6452   H         1 RES1   0.0000
    40 H15     31.4631  10.1311  65.2717   H         1 RES1   0.0000
    41 H16     24.8024  11.0089  61.4533   H         1 RES1   0.0000
    42 H17     25.9969   3.1827  62.0780   H         1 RES1   0.0000
@<TRIPOS>BOND
     1     1     2    2
     2     1     5    1
     3     1    24    1
     4     2     3    1
     5     2     6    1
     6     3     4    1
     7     3     9    1
     8     4     5    2
     9     6     7    2
    10     7     8    1
    11     7    11    1
    12     8     9    2
    13     9    10    1
    14    10    12    1
    15    11    19    2
    16    11    23    1
    17    12    13    1
    18    13    14    2
    19    13    18    1
    20    14    15    1
    21    15    16    2
    22    16    17    1
    23    17    18    2
    24    19    20    1
    25    20    21    2
    26    21    22    1
    27    22    23    2
    28    24    25    1
    29     5    26    1
    30     8    27    1
    31    10    28    1
    32    12    29    1
    33    12    30    1
    34    14    31    1
    35    19    32    1
    36    24    33    1
    37    24    34    1
    38    22    35    1
    39    17    36    1
    40    16    37    1
    41    23    38    1
    42    21    39    1
    43    18    40    1
    44    20    41    1
    45    25    42    1
@<TRIPOS>SUBSTRUCTURE
     1 RES1        1 GROUP             0 ****  ****    0  
@<TRIPOS>MOLECULE
1Y91:A:CT9401
    64    67     1     0     0
SMALL
NO_CHARGES
****
Generated from the CSD

@<TRIPOS>ATOM
     1 N1      24.1015   9.1919  57.9915   N.3       1 RES1   0.0000
     2 C2      32.5363  13.2179  66.0974   C.3       1 RES1   0.0000
     3 S3      33.7972  10.9859  65.4124   S.o2      1 RES1   0.0000
     4 N4      33.0513  12.3719  65.0165   N.pl3     1 RES1   0.0000
     5 C5      32.8753  12.7919  63.6215   C.3       1 RES1   0.0000
     6 O6      34.3902  11.2029  66.7424   O.2       1 RES1   0.0000
     7 C7      24.3845   8.9189  59.4165   C.3       1 RES1   0.0000
     8 C8      25.6784   8.1039  59.5295   C.3       1 RES1   0.0000
     9 C9      26.0094   7.8589  60.9915   C.3       1 RES1   0.0000
    10 C10     24.5325  10.2469  60.1705   C.3       1 RES1   0.0000
    11 C11     24.8934   9.9739  61.6295   C.3       1 RES1   0.0000
    12 C12     26.1974   9.1899  61.6875   C.3       1 RES1   0.0000
    13 N13     26.3834   8.8689  63.0795   N.pl3     1 RES1   0.0000
    14 C14     26.9604   7.7939  63.6395   C.2       1 RES1   0.0000
    15 C15     28.1404   7.8659  64.3675   C.2       1 RES1   0.0000
    16 N16     26.3024   6.6400  63.5535   N.2       1 RES1   0.0000
    17 C17     26.8094   5.5680  64.1355   C.2       1 RES1   0.0000
    18 C18     26.2864   4.3020  64.1245   C.2       1 RES1   0.0000
    19 C19     25.0204   3.9070  63.4775   C.2       1 RES1   0.0000
    20 C20     25.0154   3.5270  62.0215   C.3       1 RES1   0.0000
    21 C21     23.8295   4.7160  63.8445   C.2       1 RES1   0.0000
    22 C22     27.1714   3.5460  64.8765   C.2       1 RES1   0.0000
    23 N23     27.9214   5.5880  64.8395   N.pl3     1 RES1   0.0000
    24 N24     28.1654   4.3630  65.3004   N.2       1 RES1   0.0000
    25 C25     28.6344   6.7070  64.9735   C.2       1 RES1   0.0000
    26 N26     29.7943   6.6720  65.6874   N.pl3     1 RES1   0.0000
    27 C27     30.7073   7.6559  65.6454   C.2       1 RES1   0.0000
    28 C28     30.9913   8.2689  64.4125   C.2       1 RES1   0.0000
    29 C29     31.9413   9.2709  64.3745   C.2       1 RES1   0.0000
    30 C30     31.3723   8.0539  66.8244   C.2       1 RES1   0.0000
    31 C31     32.3213   9.0709  66.7574   C.2       1 RES1   0.0000
    32 C32     32.6013   9.6679  65.5424   C.2       1 RES1   0.0000
    33 O33     34.7172  10.5589  64.3665   O.2       1 RES1   0.0000
    34 H1      22.8589   4.4852  63.4080   H         1 RES1   0.0000
    35 H2      23.9272   5.5398  64.5500   H         1 RES1   0.0000
    36 H3      27.0833   2.4817  65.0894   H         1 RES1   0.0000
    37 H4      30.4729   7.9601  63.5060   H         1 RES1   0.0000
    38 H5      31.1464   7.5720  67.7745   H         1 RES1   0.0000
    39 H6      32.1783   9.7554  63.4285   H         1 RES1   0.0000
    40 H7      32.8406   9.3945  67.6583   H         1 RES1   0.0000
    41 H8      25.6717   2.6718  61.8673   H         1 RES1   0.0000
    42 H9      24.0025   3.2667  61.7178   H         1 RES1   0.0000
    43 H10     25.3683   4.3675  61.4258   H         1 RES1   0.0000
    44 H11     29.9765   5.8664  66.2773   H         1 RES1   0.0000
    45 H12     23.5609   8.3500  59.8455   H         1 RES1   0.0000
    46 H13     23.5923  10.7946  60.1267   H         1 RES1   0.0000
    47 H14     25.3200  10.8399  59.7078   H         1 RES1   0.0000
    48 H15     28.6730   8.8107  64.4650   H         1 RES1   0.0000
    49 H16     33.3661  13.7516  63.4667   H         1 RES1   0.0000
    50 H17     33.3164  12.0478  62.9600   H         1 RES1   0.0000
    51 H18     31.8129  12.8880  63.4026   H         1 RES1   0.0000
    52 H19     26.9266   7.2764  61.0649   H         1 RES1   0.0000
    53 H20     25.1938   7.3128  61.4633   H         1 RES1   0.0000
    54 H21     33.3578  13.5178  66.7464   H         1 RES1   0.0000
    55 H22     32.0671  14.1041  65.6726   H         1 RES1   0.0000
    56 H23     31.8015  12.6602  66.6761   H         1 RES1   0.0000
    57 H24     23.9945   8.3139  57.4936   H         1 RES1   0.0000
    58 H25     23.2453   9.7314  57.9139   H         1 RES1   0.0000
    59 H26     26.0252   9.5574  63.7336   H         1 RES1   0.0000
    60 H27     27.0352   9.7533  61.2793   H         1 RES1   0.0000
    61 H28     24.0994   9.3944  62.0983   H         1 RES1   0.0000
    62 H29     25.0133  10.9188  62.1574   H         1 RES1   0.0000
    63 H30     26.4937   8.6542  59.0621   H         1 RES1   0.0000
    64 H31     25.5485   7.1483  59.0237   H         1 RES1   0.0000
@<TRIPOS>BOND
     1     1     7    1
     2     2     4    1
     3     3     4    1
     4     3     6    2
     5     3    32    1
     6     3    33    2
     7     4     5    1
     8     7     8    1
     9     7    10    1
    10     8     9    1
    11     9    12    1
    12    10    11    1
    13    11    12    1
    14    12    13    1
    15    13    14    1
    16    14    15    1
    17    14    16    2
    18    15    25    2
    19    16    17    1
    20    17    18    2
    21    17    23    1
    22    18    19    1
    23    18    22    1
    24    19    20    1
    25    19    21    2
    26    22    24    2
    27    23    24    1
    28    23    25    1
    29    25    26    1
    30    26    27    1
    31    27    28    2
    32    27    30    1
    33    28    29    1
    34    29    32    2
    35    30    31    2
    36    31    32    1
    37    21    34    1
    38    21    35    1
    39    22    36    1
    40    28    37    1
    41    30    38    1
    42    29    39    1
    43    31    40    1
    44    20    41    1
    45    20    42    1
    46    20    43    1
    47    26    44    1
    48     7    45    1
    49    10    46    1
    50    10    47    1
    51    15    48    1
    52     5    49    1
    53     5    50    1
    54     5    51    1
    55     9    52    1
    56     9    53    1
    57     2    54    1
    58     2    55    1
    59     2    56    1
    60     1    57    1
    61     1    58    1
    62    13    59    1
    63    12    60    1
    64    11    61    1
    65    11    62    1
    66     8    63    1
    67     8    64    1
@<TRIPOS>SUBSTRUCTURE
     1 RES1        1 GROUP             0 ****  ****    0  
@<TRIPOS>MOLECULE
3LE6:A:2BZ299
    37    40     1     0     0
SMALL
USER_CHARGES
****
Generated from the CSD

@<TRIPOS>ATOM
     1 N1      29.2531   6.0822  65.5236   N.pl3     1 RES1   0.0000
     2 C2      29.6321   7.3532  65.0386   C.2       1 RES1   0.0000
     3 C3      28.8991   8.1602  64.0926   C.2       1 RES1   0.0000
     4 C4      27.5481   7.7452  63.4446   C.2       1 RES1   0.0000
     5 C5      26.8311   8.7312  62.5206   C.2       1 RES1   0.0000
     6 C6      31.4191   9.1272  65.1896   C.2       1 RES1   0.0000
     7 C7      26.4691   4.3471  64.1976   C.2       1 RES1   0.0000
     8 C8      26.2241   9.9102  63.0906   C.2       1 RES1   0.0000
     9 C9      25.5621  10.8393  62.2426   C.2       1 RES1   0.0000
    10 C10     25.4951  10.6093  60.8417   C.2       1 RES1   0.0000
    11 C11     26.7561   8.5042  61.1057   C.2       1 RES1   0.0000
    12 C12     27.2161   5.5011  64.2666   C.2       1 RES1   0.0000
    13 C13     28.2701   5.2291  65.1586   C.2       1 RES1   0.0000
    14 N14     26.8571   6.6312  63.5256   N.2       1 RES1   0.0000
    15 C15     30.8871   7.8612  65.5646   C.2       1 RES1   0.0000
    16 C16     30.7001   9.9262  64.2636   C.2       1 RES1   0.0000
    17 C17     29.4701   9.4472  63.7306   C.2       1 RES1   0.0000
    18 C18     25.2491   3.9941  63.4396   C.3       1 RES1   0.0000
    19 N19     27.1021   3.4721  65.0316   N.pl3     1 RES1   0.0000
    20 N20     28.1941   3.9771  65.6276   N.2       1 RES1   0.0000
    21 N21     31.2071  11.2643  63.8506   N.pl3     1 RES1   1.0000
    22 O22     30.5351  11.9143  63.0306   O.3       1 RES1  -1.0000
    23 O23     32.2651  11.6793  64.3596   O.2       1 RES1   0.0000
    24 C24     26.0871   9.4482  60.2727   C.2       1 RES1   0.0000
    25 Cl25    27.4501   7.1102  60.3557   Cl        1 RES1   0.0000
    26 H1      26.7763   2.5235  65.1876   H         1 RES1   0.0000
    27 H2      32.3624   9.4766  65.6066   H         1 RES1   0.0000
    28 H3      25.4432   4.0933  62.3726   H         1 RES1   0.0000
    29 H4      24.9674   2.9662  63.6633   H         1 RES1   0.0000
    30 H5      24.4383   4.6629  63.7247   H         1 RES1   0.0000
    31 H6      25.1043  11.7311  62.6682   H         1 RES1   0.0000
    32 H7      26.2730  10.0869  64.1641   H         1 RES1   0.0000
    33 H8      28.9327  10.0730  63.0197   H         1 RES1   0.0000
    34 H9      26.0293   9.2798  59.1984   H         1 RES1   0.0000
    35 H10     29.8267   5.7460  66.2905   H         1 RES1   0.0000
    36 H11     31.4429   7.2495  66.2737   H         1 RES1   0.0000
    37 H12     24.9869  11.3272  60.1996   H         1 RES1   0.0000
@<TRIPOS>BOND
     1     1     2    1
     2     1    13    1
     3     2     3    2
     4     2    15    1
     5     3     4    1
     6     3    17    1
     7     4     5    1
     8     4    14    2
     9     5     8    2
    10     5    11    1
    11     6    15    2
    12     6    16    1
    13     7    12    2
    14     7    18    1
    15     7    19    1
    16     8     9    1
    17     9    10    2
    18    10    24    1
    19    11    24    2
    20    11    25    1
    21    12    13    1
    22    12    14    1
    23    13    20    2
    24    16    17    2
    25    16    21    1
    26    19    20    1
    27    21    22    1
    28    21    23    2
    29    19    26    1
    30     6    27    1
    31    18    28    1
    32    18    29    1
    33    18    30    1
    34     9    31    1
    35     8    32    1
    36    17    33    1
    37    24    34    1
    38     1    35    1
    39    15    36    1
    40    10    37    1
@<TRIPOS>SUBSTRUCTURE
     1 RES1        1 GROUP             0 ****  ****    0  
@<TRIPOS>MOLECULE
2XNB:A:Y8L1299
    98   104     1     0     0
SMALL
NO_CHARGES
****
Generated from the CSD

@<TRIPOS>ATOM
     1 C1      32.4228  11.6809  65.9307   C.3       1 RES1   0.0000
     2 C2      32.5888  13.2119  65.9457   C.3       1 RES1   0.0000
     3 N3      31.7328  13.8849  64.9577   N.3       1 RES1   0.0000
     4 C4      31.9008  13.2199  63.6738   C.3       1 RES1   0.0000
     5 C5      31.1298  11.8999  63.7208   C.3       1 RES1   0.0000
     6 N6      31.4468  11.1579  64.9537   N.pl3     1 RES1   0.0000
     7 C7      30.9718   9.8379  65.1127   C.2       1 RES1   0.0000
     8 C8      30.0458   9.2949  64.2197   C.2       1 RES1   0.0000
     9 C9      29.6108   7.9679  64.3467   C.2       1 RES1   0.0000
    10 C10     31.4348   9.0469  66.1607   C.2       1 RES1   0.0000
    11 C11     30.9688   7.7329  66.2877   C.2       1 RES1   0.0000
    12 C12     30.0748   7.1639  65.3777   C.2       1 RES1   0.0000
    13 N13     29.6758   5.8930  65.5757   N.pl3     1 RES1   0.0000
    14 C14     28.5818   5.2880  65.0767   C.2       1 RES1   0.0000
    15 N15     27.6358   5.8990  64.3307   N.2       1 RES1   0.0000
    16 N16     28.4888   3.9590  65.2777   N.2       1 RES1   0.0000
    17 C17     27.4688   3.2460  64.8257   C.2       1 RES1   0.0000
    18 C18     26.4668   3.8670  64.1007   C.2       1 RES1   0.0000
    19 C19     26.5518   5.2410  63.8727   C.2       1 RES1   0.0000
    20 C20     25.5778   5.8600  63.0708   C.2       1 RES1   0.0000
    21 S21     24.2018   5.1090  62.3618   S.3       1 RES1   0.0000
    22 C22     23.7328   6.4999  61.5178   C.2       1 RES1   0.0000
    23 O23     22.7308   6.6119  60.8149   O.2       1 RES1   0.0000
    24 N24     24.5728   7.4999  61.7948   N.am      1 RES1   0.0000
    25 C25     24.3928   8.8619  61.2168   C.3       1 RES1   0.0000
    26 C26     25.5808   7.1909  62.6218   C.2       1 RES1   0.0000
    27 C27     26.6208   8.2369  63.0338   C.3       1 RES1   0.0000
    28 C28     32.4808  11.5849  65.9707   C.3       1 RES1   0.0000
    29 C29     32.1308  13.0749  66.0887   C.3       1 RES1   0.0000
    30 N30     32.1898  13.7779  64.7877   N.3       1 RES1   0.0000
    31 C31     32.2358  12.8569  63.6448   C.3       1 RES1   0.0000
    32 C32     31.1848  11.7589  63.8317   C.3       1 RES1   0.0000
    33 N33     31.5868  10.9479  64.9927   N.pl3     1 RES1   0.0000
    34 C34     31.1858   9.6069  65.1247   C.2       1 RES1   0.0000
    35 C35     30.1608   9.1019  64.3287   C.2       1 RES1   0.0000
    36 C36     29.7638   7.7649  64.4407   C.2       1 RES1   0.0000
    37 C37     31.7948   8.7679  66.0507   C.2       1 RES1   0.0000
    38 C38     31.3988   7.4299  66.1507   C.2       1 RES1   0.0000
    39 C39     30.3788   6.9199  65.3487   C.2       1 RES1   0.0000
    40 N40     30.0098   5.6380  65.4747   N.pl3     1 RES1   0.0000
    41 C41     28.9188   5.1170  64.8987   C.2       1 RES1   0.0000
    42 N42     28.1198   5.8420  64.0937   N.2       1 RES1   0.0000
    43 N43     28.6438   3.8210  65.1357   N.2       1 RES1   0.0000
    44 C44     27.5708   3.2370  64.6277   C.2       1 RES1   0.0000
    45 C45     26.7438   3.9590  63.7887   C.2       1 RES1   0.0000
    46 C46     27.0318   5.2970  63.5288   C.2       1 RES1   0.0000
    47 C47     26.1888   5.9960  62.6598   C.2       1 RES1   0.0000
    48 S48     26.5098   7.3889  61.6998   S.3       1 RES1   0.0000
    49 C49     24.9348   7.3739  61.0038   C.2       1 RES1   0.0000
    50 O50     24.4858   8.1749  60.1859   O.2       1 RES1   0.0000
    51 N51     24.2318   6.3519  61.4948   N.am      1 RES1   0.0000
    52 C52     22.8308   6.0870  61.1088   C.3       1 RES1   0.0000
    53 C53     24.8738   5.6090  62.4028   C.2       1 RES1   0.0000
    54 C54     24.2258   4.4130  63.0908   C.3       1 RES1   0.0000
    55 H1      24.2222   4.5720  64.1681   H         1 RES1   0.0000
    56 H2      23.2020   4.3015  62.7369   H         1 RES1   0.0000
    57 H3      24.7903   3.5111  62.8589   H         1 RES1   0.0000
    58 H4      22.7764   5.9157  60.0347   H         1 RES1   0.0000
    59 H5      22.4696   5.2051  61.6358   H         1 RES1   0.0000
    60 H6      22.2135   6.9449  61.3713   H         1 RES1   0.0000
    61 H7      27.3422   2.1997  64.8679   H         1 RES1   0.0000
    62 H8      30.5907   5.0265  66.0393   H         1 RES1   0.0000
    63 H9      31.8952   6.7763  66.8664   H         1 RES1   0.0000
    64 H10     32.5809   9.1525  66.6989   H         1 RES1   0.0000
    65 H11     28.9633   7.3853  63.8075   H         1 RES1   0.0000
    66 H12     31.1386  11.1341  62.9409   H         1 RES1   0.0000
    67 H13     30.2086  12.2066  64.0121   H         1 RES1   0.0000
    68 H14     33.2249  12.4057  63.5817   H         1 RES1   0.0000
    69 H15     32.0281  13.4059  62.7275   H         1 RES1   0.0000
    70 H16     33.0223  14.3583  64.7702   H         1 RES1   0.0000
    71 H17     32.8360  13.5458  66.7720   H         1 RES1   0.0000
    72 H18     31.1220  13.1656  66.4888   H         1 RES1   0.0000
    73 H19     32.3585  11.1053  66.9407   H         1 RES1   0.0000
    74 H20     33.5134  11.4795  65.6413   H         1 RES1   0.0000
    75 H21     29.6634   9.7539  63.6121   H         1 RES1   0.0000
    76 H22     27.6122   7.9010  62.7335   H         1 RES1   0.0000
    77 H23     26.3955   9.1844  62.5465   H         1 RES1   0.0000
    78 H24     26.5942   8.3692  64.1144   H         1 RES1   0.0000
    79 H25     23.4274   9.2617  61.5235   H         1 RES1   0.0000
    80 H26     25.1868   9.5158  61.5744   H         1 RES1   0.0000
    81 H27     24.4327   8.8033  60.1301   H         1 RES1   0.0000
    82 H28     25.6259   3.2928  63.7145   H         1 RES1   0.0000
    83 H29     27.4186   2.1763  65.0234   H         1 RES1   0.0000
    84 H30     30.2697   5.3246  66.1711   H         1 RES1   0.0000
    85 H31     31.3161   7.1322  67.1270   H         1 RES1   0.0000
    86 H32     28.9002   7.5636  63.6274   H         1 RES1   0.0000
    87 H33     29.6552   9.9118  63.4117   H         1 RES1   0.0000
    88 H34     32.1529   9.4467  66.8751   H         1 RES1   0.0000
    89 H35     31.4039  11.2944  62.8582   H         1 RES1   0.0000
    90 H36     30.0613  12.1083  63.6932   H         1 RES1   0.0000
    91 H37     32.9570  13.0248  63.4941   H         1 RES1   0.0000
    92 H38     31.5073  13.8496  62.8772   H         1 RES1   0.0000
    93 H39     32.0041  14.8596  64.8768   H         1 RES1   0.0000
    94 H40     33.6283  13.4518  65.7271   H         1 RES1   0.0000
    95 H41     32.3321  13.5805  66.9377   H         1 RES1   0.0000
    96 H42     32.1042  11.3680  66.9239   H         1 RES1   0.0000
    97 H43     33.3928  11.2402  65.7051   H         1 RES1   0.0000
    98 H44     25.8743   3.4862  63.3345   H         1 RES1   0.0000
@<TRIPOS>BOND
     1     1     2    1
     2     1     6    1
     3     2     3    1
     4     3     4    1
     5     4     5    1
     6     5     6    1
     7     6     7    1
     8     7     8    2
     9     7    10    1
    10     8     9    1
    11     9    12    2
    12    10    11    2
    13    11    12    1
    14    12    13    1
    15    13    14    1
    16    14    15    2
    17    14    16    1
    18    15    19    1
    19    16    17    2
    20    17    18    1
    21    18    19    2
    22    19    20    1
    23    20    21    1
    24    20    26    2
    25    21    22    1
    26    22    23    2
    27    22    24   am
    28    24    25    1
    29    24    26    1
    30    26    27    1
    31    28    29    1
    32    28    33    1
    33    29    30    1
    34    30    31    1
    35    31    32    1
    36    32    33    1
    37    33    34    1
    38    34    35    2
    39    34    37    1
    40    35    36    1
    41    36    39    2
    42    37    38    2
    43    38    39    1
    44    39    40    1
    45    40    41    1
    46    41    42    2
    47    41    43    1
    48    42    46    1
    49    43    44    2
    50    44    45    1
    51    45    46    2
    52    46    47    1
    53    47    48    1
    54    47    53    2
    55    48    49    1
    56    49    50    2
    57    49    51   am
    58    51    52    1
    59    51    53    1
    60    53    54    1
    61    54    55    1
    62    54    56    1
    63    54    57    1
    64    52    58    1
    65    52    59    1
    66    52    60    1
    67    44    61    1
    68    40    62    1
    69    38    63    1
    70    37    64    1
    71    36    65    1
    72    32    66    1
    73    32    67    1
    74    31    68    1
    75    31    69    1
    76    30    70    1
    77    29    71    1
    78    29    72    1
    79    28    73    1
    80    28    74    1
    81    35    75    1
    82    27    76    1
    83    27    77    1
    84    27    78    1
    85    25    79    1
    86    25    80    1
    87    25    81    1
    88    18    82    1
    89    17    83    1
    90    13    84    1
    91    11    85    1
    92     9    86    1
    93     8    87    1
    94    10    88    1
    95     5    89    1
    96     5    90    1
    97     4    91    1
    98     4    92    1
    99     3    93    1
   100     2    94    1
   101     2    95    1
   102     1    96    1
   103     1    97    1
   104    45    98    1
@<TRIPOS>SUBSTRUCTURE
     1 RES1        1 GROUP             0 ****  ****    0  
@<TRIPOS>MOLECULE
2VV9:A:IM91300
    61    64     1     0     0
SMALL
NO_CHARGES
****
Generated from the CSD

@<TRIPOS>ATOM
     1 C1      26.9645   7.6389  60.5698   C.3       1 RES1   0.0000
     2 C2      26.5365   7.6739  62.0408   C.3       1 RES1   0.0000
     3 C3      26.2825   9.1149  62.4798   C.3       1 RES1   0.0000
     4 N4      25.3545   6.8279  62.2468   N.pl3     1 RES1   0.0000
     5 C5      24.1345   6.9869  61.6988   C.2       1 RES1   0.0000
     6 C6      23.7615   8.1199  60.7708   C.3       1 RES1   0.0000
     7 N7      23.3425   6.0059  62.0888   N.2       1 RES1   0.0000
     8 C8      24.0095   5.1869  62.9108   C.2       1 RES1   0.0000
     9 C9      25.2795   5.6749  63.0148   C.2       1 RES1   0.0000
    10 C10     26.3695   5.0909  63.8178   C.2       1 RES1   0.0000
    11 C11     26.3725   3.7009  64.0738   C.2       1 RES1   0.0000
    12 C12     27.4125   3.2089  64.8448   C.2       1 RES1   0.0000
    13 N13     28.3625   4.0279  65.2968   N.2       1 RES1   0.0000
    14 C14     28.3635   5.3259  65.0108   C.2       1 RES1   0.0000
    15 N15     29.4386   6.0239  65.5478   N.pl3     1 RES1   0.0000
    16 C16     29.9116   7.3079  65.2838   C.2       1 RES1   0.0000
    17 C17     29.4606   8.1339  64.2538   C.2       1 RES1   0.0000
    18 C18     30.0256   9.4009  64.1118   C.2       1 RES1   0.0000
    19 C19     31.0276   9.8598  64.9608   C.2       1 RES1   0.0000
    20 C20     31.4906   9.0289  65.9748   C.2       1 RES1   0.0000
    21 C21     30.9296   7.7659  66.1118   C.2       1 RES1   0.0000
    22 N22     31.6166  11.1348  64.7828   N.3       1 RES1   0.0000
    23 C23     30.9236  11.9338  63.7648   C.3       1 RES1   0.0000
    24 C24     31.7426  13.1948  63.5018   C.3       1 RES1   0.0000
    25 N25     31.9946  13.8748  64.7908   N.am      1 RES1   0.0000
    26 C26     32.6126  13.0898  65.8708   C.3       1 RES1   0.0000
    27 C27     31.7186  11.8468  66.0638   C.3       1 RES1   0.0000
    28 C28     31.6786  15.1768  64.9898   C.2       1 RES1   0.0000
    29 O29     31.9386  15.7058  66.0648   O.2       1 RES1   0.0000
    30 C30     31.0256  15.9807  63.8918   C.3       1 RES1   0.0000
    31 O31     30.8456  17.3547  64.2748   O.3       1 RES1   0.0000
    32 N32     27.3655   5.8809  64.2868   N.2       1 RES1   0.0000
    33 H1      31.3013   7.1098  66.8975   H         1 RES1   0.0000
    34 H2      30.0525  15.5464  63.6672   H         1 RES1   0.0000
    35 H3      31.6545  15.9413  63.0036   H         1 RES1   0.0000
    36 H4      31.7291  17.7606  64.4764   H         1 RES1   0.0000
    37 H5      32.1598  11.1912  66.8131   H         1 RES1   0.0000
    38 H6      30.7270  12.1561  66.3908   H         1 RES1   0.0000
    39 H7      32.6500  13.6744  66.7888   H         1 RES1   0.0000
    40 H8      33.6211  12.7898  65.5902   H         1 RES1   0.0000
    41 H9      29.9325  12.2072  64.1238   H         1 RES1   0.0000
    42 H10     30.8305  11.3574  62.8455   H         1 RES1   0.0000
    43 H11     31.1898  13.8590  62.8391   H         1 RES1   0.0000
    44 H12     32.6905  12.9259  63.0380   H         1 RES1   0.0000
    45 H13     32.2783   9.3622  66.6489   H         1 RES1   0.0000
    46 H14     29.6719  10.0505  63.3125   H         1 RES1   0.0000
    47 H15     29.9669   5.5139  66.2485   H         1 RES1   0.0000
    48 H16     28.6812   7.7952  63.5728   H         1 RES1   0.0000
    49 H17     27.4545   2.1471  65.0832   H         1 RES1   0.0000
    50 H18     25.5937   3.0475  63.6832   H         1 RES1   0.0000
    51 H19     23.6138   4.2997  63.4030   H         1 RES1   0.0000
    52 H20     25.4924   9.5470  61.8675   H         1 RES1   0.0000
    53 H21     25.9793   9.1277  63.5257   H         1 RES1   0.0000
    54 H22     27.1948   9.6973  62.3592   H         1 RES1   0.0000
    55 H23     24.3980   8.0903  59.8876   H         1 RES1   0.0000
    56 H24     22.7197   8.0157  60.4711   H         1 RES1   0.0000
    57 H25     23.8980   9.0701  61.2849   H         1 RES1   0.0000
    58 H26     27.3512   7.2732  62.6422   H         1 RES1   0.0000
    59 H27     27.8787   8.2171  60.4439   H         1 RES1   0.0000
    60 H28     27.1427   6.6078  60.2680   H         1 RES1   0.0000
    61 H29     26.1763   8.0669  59.9521   H         1 RES1   0.0000
@<TRIPOS>BOND
     1     1     2    1
     2     2     3    1
     3     2     4    1
     4     4     5    1
     5     4     9    1
     6     5     6    1
     7     5     7    2
     8     7     8    1
     9     8     9    2
    10     9    10    1
    11    10    11    2
    12    10    32    1
    13    11    12    1
    14    12    13    2
    15    13    14    1
    16    14    15    1
    17    14    32    2
    18    15    16    1
    19    16    17    2
    20    16    21    1
    21    17    18    1
    22    18    19    2
    23    19    20    1
    24    19    22    1
    25    20    21    2
    26    22    23    1
    27    22    27    1
    28    23    24    1
    29    24    25    1
    30    25    26    1
    31    25    28   am
    32    26    27    1
    33    28    29    2
    34    28    30    1
    35    30    31    1
    36    21    33    1
    37    30    34    1
    38    30    35    1
    39    31    36    1
    40    27    37    1
    41    27    38    1
    42    26    39    1
    43    26    40    1
    44    23    41    1
    45    23    42    1
    46    24    43    1
    47    24    44    1
    48    20    45    1
    49    18    46    1
    50    15    47    1
    51    17    48    1
    52    12    49    1
    53    11    50    1
    54     8    51    1
    55     3    52    1
    56     3    53    1
    57     3    54    1
    58     6    55    1
    59     6    56    1
    60     6    57    1
    61     2    58    1
    62     1    59    1
    63     1    60    1
    64     1    61    1
@<TRIPOS>SUBSTRUCTURE
     1 RES1        1 GROUP             0 ****  ****    0  
@<TRIPOS>MOLECULE
2R3L:A:SCW501
    38    41     1     0     0
SMALL
NO_CHARGES
****
Generated from the CSD

@<TRIPOS>ATOM
     1 C1      26.4905   4.2740  63.9958   C.2       1 RES1   0.0000
     2 N2      27.0665   5.4660  63.7338   N.pl3     1 RES1   0.0000
     3 C3      28.2295   5.5150  64.4408   C.2       1 RES1   0.0000
     4 N4      28.4295   4.3760  65.1668   N.2       1 RES1   0.0000
     5 C5      27.3455   3.5980  64.8738   C.2       1 RES1   0.0000
     6 C6      26.6345   6.5170  62.9258   C.2       1 RES1   0.0000
     7 C7      27.3955   7.6541  62.8248   C.2       1 RES1   0.0000
     8 C8      28.6175   7.7391  63.5498   C.2       1 RES1   0.0000
     9 C9      29.0635   6.6900  64.3618   C.2       1 RES1   0.0000
    10 N10     30.2435   6.6570  65.0508   N.pl3     1 RES1   0.0000
    11 C11     26.9785   8.7481  61.9098   C.2       1 RES1   0.0000
    12 C12     31.2884   7.6371  64.6918   C.3       1 RES1   0.0000
    13 C13     31.3574   8.6971  65.7488   C.2       1 RES1   0.0000
    14 C14     31.2114  10.0661  65.4558   C.2       1 RES1   0.0000
    15 N15     31.2674  11.0161  66.4118   N.2       1 RES1   0.0000
    16 C16     31.5074  10.5701  67.6637   C.2       1 RES1   0.0000
    17 N17     31.6694   9.2991  68.0577   N.2       1 RES1   0.0000
    18 C18     31.5914   8.3761  67.0927   C.2       1 RES1   0.0000
    19 C19     26.3595   8.4501  60.6869   C.2       1 RES1   0.0000
    20 C20     25.9805   9.4771  59.8089   C.2       1 RES1   0.0000
    21 C21     26.2425  10.8071  60.1309   C.2       1 RES1   0.0000
    22 C22     26.8875  11.1181  61.3369   C.2       1 RES1   0.0000
    23 C23     27.2535  10.0951  62.2198   C.2       1 RES1   0.0000
    24 Br24    24.8766   3.6730  63.3138   Br        1 RES1   0.0000
    25 H1      26.1713   7.4122  60.4163   H         1 RES1   0.0000
    26 H2      31.7152   7.3286  67.3634   H         1 RES1   0.0000
    27 H3      31.5773  11.3292  68.4414   H         1 RES1   0.0000
    28 H4      27.7551  10.3424  63.1543   H         1 RES1   0.0000
    29 H5      27.1037  12.1558  61.5866   H         1 RES1   0.0000
    30 H6      25.9474  11.6027  59.4483   H         1 RES1   0.0000
    31 H7      25.4800   9.2338  58.8728   H         1 RES1   0.0000
    32 H8      31.0477  10.3685  64.4225   H         1 RES1   0.0000
    33 H9      31.0448   8.0940  63.7338   H         1 RES1   0.0000
    34 H10     32.2508   7.1326  64.6192   H         1 RES1   0.0000
    35 H11     30.3974   5.9775  65.7889   H         1 RES1   0.0000
    36 H12     29.2202   8.6427  63.4707   H         1 RES1   0.0000
    37 H13     25.6972   6.4357  62.3773   H         1 RES1   0.0000
    38 H14     27.1718   2.5972  65.2664   H         1 RES1   0.0000
@<TRIPOS>BOND
     1     1     2    1
     2     1     5    2
     3     1    24    1
     4     2     3    1
     5     2     6    1
     6     3     4    2
     7     3     9    1
     8     4     5    1
     9     6     7    2
    10     7     8    1
    11     7    11    1
    12     8     9    2
    13     9    10    1
    14    10    12    1
    15    11    19    2
    16    11    23    1
    17    12    13    1
    18    13    14    2
    19    13    18    1
    20    14    15    1
    21    15    16    2
    22    16    17    1
    23    17    18    2
    24    19    20    1
    25    20    21    2
    26    21    22    1
    27    22    23    2
    28    19    25    1
    29    18    26    1
    30    16    27    1
    31    23    28    1
    32    22    29    1
    33    21    30    1
    34    20    31    1
    35    14    32    1
    36    12    33    1
    37    12    34    1
    38    10    35    1
    39     8    36    1
    40     6    37    1
    41     5    38    1
@<TRIPOS>SUBSTRUCTURE
     1 RES1        1 GROUP             0 ****  ****    0  
@<TRIPOS>MOLECULE
2R3I:A:SCF501
    76    82     1     0     0
SMALL
NO_CHARGES
****
Generated from the CSD

@<TRIPOS>ATOM
     1 C1      26.1902   4.1470  63.8384   C.2       1 RES1   0.0000
     2 C2      26.7212   5.4220  63.6254   C.2       1 RES1   0.0000
     3 N3      27.8572   5.5020  64.4414   N.pl3     1 RES1   0.0000
     4 N4      28.0982   4.3490  65.0974   N.2       1 RES1   0.0000
     5 C5      27.0992   3.5180  64.7314   C.2       1 RES1   0.0000
     6 N6      26.2992   6.4500  62.8725   N.2       1 RES1   0.0000
     7 C7      27.0672   7.5280  62.8885   C.2       1 RES1   0.0000
     8 C8      28.2812   7.6350  63.6184   C.2       1 RES1   0.0000
     9 C9      28.6692   6.5800  64.3984   C.2       1 RES1   0.0000
    10 N10     29.8192   6.5000  65.1014   N.pl3     1 RES1   0.0000
    11 C11     26.6802   8.6560  62.0345   C.2       1 RES1   0.0000
    12 C12     30.9682   7.2790  64.6934   C.3       1 RES1   0.0000
    13 C13     31.1982   8.4120  65.6154   C.2       1 RES1   0.0000
    14 C14     31.1072   9.7210  65.1504   C.2       1 RES1   0.0000
    15 C15     31.3392  10.7730  66.0664   C.2       1 RES1   0.0000
    16 N16     31.6122  10.5670  67.3754   N.2       1 RES1   0.0000
    17 C17     31.6902   9.2850  67.8003   C.2       1 RES1   0.0000
    18 C18     31.4572   8.1820  66.9604   C.2       1 RES1   0.0000
    19 C19     26.6182   9.9630  62.5635   C.2       1 RES1   0.0000
    20 C20     26.2232  11.0550  61.7795   C.2       1 RES1   0.0000
    21 C21     25.8932  10.8450  60.4435   C.2       1 RES1   0.0000
    22 C22     25.9752   9.5720  59.8765   C.2       1 RES1   0.0000
    23 C23     26.3452   8.4540  60.6695   C.2       1 RES1   0.0000
    24 F24     26.4012   7.1980  60.0625   F         1 RES1   0.0000
    25 C25     26.1682   3.9510  63.8244   C.2       1 RES1   0.0000
    26 C26     26.6972   5.2220  63.4965   C.2       1 RES1   0.0000
    27 N27     27.9612   5.2840  64.1694   N.pl3     1 RES1   0.0000
    28 N28     28.2212   4.1560  64.8594   N.2       1 RES1   0.0000
    29 C29     27.1512   3.3420  64.6644   C.2       1 RES1   0.0000
    30 N30     26.2132   6.2410  62.7315   N.2       1 RES1   0.0000
    31 C31     26.9892   7.3250  62.6325   C.2       1 RES1   0.0000
    32 C32     28.2832   7.4420  63.2315   C.2       1 RES1   0.0000
    33 C33     28.7732   6.4030  64.0154   C.2       1 RES1   0.0000
    34 N34     30.0102   6.4130  64.6414   N.pl3     1 RES1   0.0000
    35 C35     26.5392   8.4310  61.7665   C.2       1 RES1   0.0000
    36 C36     30.9342   7.5040  64.3594   C.3       1 RES1   0.0000
    37 C37     31.2342   8.3880  65.5514   C.2       1 RES1   0.0000
    38 C38     31.6322   9.7080  65.3424   C.2       1 RES1   0.0000
    39 C39     31.9232  10.5160  66.4644   C.2       1 RES1   0.0000
    40 N40     31.8502  10.0830  67.7413   N.2       1 RES1   0.0000
    41 C41     31.4532   8.8050  67.9363   C.2       1 RES1   0.0000
    42 C42     31.1442   7.9160  66.8784   C.2       1 RES1   0.0000
    43 C43     26.2322   8.1390  60.4345   C.2       1 RES1   0.0000
    44 C44     25.8412   9.1330  59.5475   C.2       1 RES1   0.0000
    45 C45     25.6982  10.4420  60.0005   C.2       1 RES1   0.0000
    46 C46     26.0062  10.7800  61.3205   C.2       1 RES1   0.0000
    47 C47     26.4132   9.7760  62.2315   C.2       1 RES1   0.0000
    48 F48     26.6862  10.1290  63.5364   F         1 RES1   0.0000
    49 H1      30.8435   6.8898  67.0844   H         1 RES1   0.0000
    50 H2      30.5017   8.1236  63.5752   H         1 RES1   0.0000
    51 H3      31.8715   7.0753  64.0078   H         1 RES1   0.0000
    52 H4      30.2681   5.6724  65.2857   H         1 RES1   0.0000
    53 H5      28.8806   8.3389  63.0746   H         1 RES1   0.0000
    54 H6      27.0543   2.3467  65.0956   H         1 RES1   0.0000
    55 H7      25.2168   3.5280  63.5053   H         1 RES1   0.0000
    56 H8      25.7539   9.4356  58.8190   H         1 RES1   0.0000
    57 H9      25.5667  11.6852  59.8324   H         1 RES1   0.0000
    58 H10     26.1750  12.0544  62.2094   H         1 RES1   0.0000
    59 H11     26.8839  10.1268  63.6068   H         1 RES1   0.0000
    60 H12     31.4793   7.1678  67.3564   H         1 RES1   0.0000
    61 H13     31.9456   9.0986  68.8424   H         1 RES1   0.0000
    62 H14     31.2961  11.7979  65.7008   H         1 RES1   0.0000
    63 H15     30.8640   9.9292  64.1095   H         1 RES1   0.0000
    64 H16     30.7972   7.6661  63.6900   H         1 RES1   0.0000
    65 H17     31.8490   6.6386  64.6902   H         1 RES1   0.0000
    66 H18     29.8775   5.8948  65.9142   H         1 RES1   0.0000
    67 H19     27.0018   2.4904  65.0784   H         1 RES1   0.0000
    68 H20     25.2796   3.7275  63.4133   H         1 RES1   0.0000
    69 H21     28.8893   8.5364  63.5585   H         1 RES1   0.0000
    70 H22     31.3668   8.4411  68.9590   H         1 RES1   0.0000
    71 H23     32.2238  11.5479  66.2892   H         1 RES1   0.0000
    72 H24     31.7171  10.1086  64.3333   H         1 RES1   0.0000
    73 H25     25.9332  11.8158  61.6486   H         1 RES1   0.0000
    74 H26     25.3419  11.2116  59.3174   H         1 RES1   0.0000
    75 H27     25.6475   8.8904  58.5037   H         1 RES1   0.0000
    76 H28     26.3012   7.1099  60.0850   H         1 RES1   0.0000
@<TRIPOS>BOND
     1     1     2    2
     2     1     5    1
     3    25    26    2
     4    25    29    1
     5     2     3    1
     6     2     6    1
     7    26    27    1
     8    26    30    1
     9     3     4    1
    10     3     9    1
    11    27    28    1
    12    27    33    1
    13     4     5    2
    14    28    29    2
    15     6     7    2
    16    30    31    2
    17     7     8    1
    18     7    11    1
    19    31    32    1
    20    31    35    1
    21     8     9    2
    22    32    33    2
    23     9    10    1
    24    33    34    1
    25    10    12    1
    26    34    36    1
    27    11    19    2
    28    11    23    1
    29    35    43    2
    30    35    47    1
    31    12    13    1
    32    36    37    1
    33    13    14    2
    34    13    18    1
    35    37    38    2
    36    37    42    1
    37    14    15    1
    38    38    39    1
    39    15    16    2
    40    39    40    2
    41    16    17    1
    42    40    41    1
    43    17    18    2
    44    41    42    2
    45    19    20    1
    46    43    44    1
    47    20    21    2
    48    44    45    2
    49    21    22    1
    50    45    46    1
    51    22    23    2
    52    46    47    2
    53    23    24    1
    54    47    48    1
    55    42    49    1
    56    36    50    1
    57    36    51    1
    58    34    52    1
    59    32    53    1
    60    29    54    1
    61    25    55    1
    62    22    56    1
    63    21    57    1
    64    20    58    1
    65    19    59    1
    66    18    60    1
    67    17    61    1
    68    15    62    1
    69    14    63    1
    70    12    64    1
    71    12    65    1
    72    10    66    1
    73     5    67    1
    74     1    68    1
    75     8    69    1
    76    41    70    1
    77    39    71    1
    78    38    72    1
    79    46    73    1
    80    45    74    1
    81    44    75    1
    82    43    76    1
@<TRIPOS>SUBSTRUCTURE
     1 RES1        1 GROUP             0 ****  ****    0  
@<TRIPOS>MOLECULE
2BHE:A:BRY1299
    30    33     1     0     0
SMALL
NO_CHARGES
****
Generated from the CSD

@<TRIPOS>ATOM
     1 C1      29.6327   8.6762  64.3562   C.2       1 RES1   0.0000
     2 C2      28.4027   7.9822  63.9172   C.2       1 RES1   0.0000
     3 C3      30.3557   7.7582  65.1022   C.2       1 RES1   0.0000
     4 N4      29.7097   6.5181  65.2082   N.pl3     1 RES1   0.0000
     5 C5      31.6197   8.1002  65.6922   C.2       1 RES1   0.0000
     6 C6      32.0577   9.4242  65.4742   C.2       1 RES1   0.0000
     7 C7      31.2987  10.3372  64.7052   C.2       1 RES1   0.0000
     8 C8      30.0517   9.9762  64.1412   C.2       1 RES1   0.0000
     9 C9      28.5007   6.5751  64.4952   C.2       1 RES1   0.0000
    10 C10     27.6707   5.5641  64.4122   C.2       1 RES1   0.0000
    11 C11     27.9057   4.2771  65.1122   C.2       1 RES1   0.0000
    12 N12     26.9127   3.4011  64.7292   N.am      1 RES1   0.0000
    13 C13     25.9348   4.0721  63.9732   C.2       1 RES1   0.0000
    14 C14     26.3467   5.3971  63.7102   C.2       1 RES1   0.0000
    15 C15     24.8088   3.5231  63.4672   C.2       1 RES1   0.0000
    16 C16     23.9718   4.3361  62.6872   C.2       1 RES1   0.0000
    17 C17     24.3228   5.6771  62.4432   C.2       1 RES1   0.0000
    18 C18     25.5298   6.2341  62.9262   C.2       1 RES1   0.0000
    19 O19     28.9477   3.9501  65.7262   O.2       1 RES1   0.0000
    20 O20     27.5037   8.4212  63.2302   O.2       1 RES1   0.0000
    21 Br21    23.1918   6.7291  61.4402   Br        1 RES1   0.0000
    22 H1      23.0513   3.9295  62.2710   H         1 RES1   0.0000
    23 H2      24.5581   2.4808  63.6588   H         1 RES1   0.0000
    24 H3      25.8138   7.2613  62.7024   H         1 RES1   0.0000
    25 H4      26.8904   2.4129  64.9598   H         1 RES1   0.0000
    26 H5      29.4544  10.6843  63.5687   H         1 RES1   0.0000
    27 H6      33.0018   9.7504  65.9081   H         1 RES1   0.0000
    28 H7      32.2024   7.3845  66.2702   H         1 RES1   0.0000
    29 H8      30.0584   5.7118  65.7166   H         1 RES1   0.0000
    30 H9      31.6834  11.3430  64.5431   H         1 RES1   0.0000
@<TRIPOS>BOND
     1     1     2    1
     2     1     3    2
     3     1     8    1
     4     2     9    1
     5     2    20    2
     6     3     4    1
     7     3     5    1
     8     4     9    1
     9     5     6    2
    10     6     7    1
    11     7     8    2
    12     9    10    2
    13    10    11    1
    14    10    14    1
    15    11    12   am
    16    11    19    2
    17    12    13    1
    18    13    14    2
    19    13    15    1
    20    14    18    1
    21    15    16    2
    22    16    17    1
    23    17    18    2
    24    17    21    1
    25    16    22    1
    26    15    23    1
    27    18    24    1
    28    12    25    1
    29     8    26    1
    30     6    27    1
    31     5    28    1
    32     4    29    1
    33     7    30    1
@<TRIPOS>SUBSTRUCTURE
     1 RES1        1 GROUP             0 ****  ****    0  
@<TRIPOS>MOLECULE
2VTS:A:LZC1299
    46    48     1     0     0
SMALL
NO_CHARGES
****
Generated from the CSD

@<TRIPOS>ATOM
     1 C1      31.5794   7.9909  67.3299   C.3       1 RES1   0.0000
     2 C2      30.8794   8.0229  65.9709   C.3       1 RES1   0.0000
     3 C3      31.8704   7.9359  64.8099   C.3       1 RES1   0.0000
     4 N4      29.9214   6.9329  65.8739   N.pl3     1 RES1   0.0000
     5 C5      28.8304   6.9749  65.0179   C.2       1 RES1   0.0000
     6 C6      28.4054   8.1089  64.3399   C.2       1 RES1   0.0000
     7 C7      27.3034   8.0019  63.4999   C.2       1 RES1   0.0000
     8 N8      26.8164   9.0679  62.7829   N.pl3     1 RES1   0.0000
     9 C9      25.8504   8.9259  61.7079   C.3       1 RES1   0.0000
    10 C10     25.3364  10.3069  61.2968   C.3       1 RES1   0.0000
    11 C11     24.3913  10.2299  60.1168   C.3       1 RES1   0.0000
    12 C12     25.1143   9.6199  58.9378   C.3       1 RES1   0.0000
    13 N13     24.2123   9.6089  57.7358   N.3       1 RES1   0.0000
    14 C14     25.6014   8.2039  59.2628   C.3       1 RES1   0.0000
    15 C15     26.4814   8.1819  60.5148   C.3       1 RES1   0.0000
    16 N16     26.6144   6.8519  63.3419   N.2       1 RES1   0.0000
    17 C17     27.0384   5.7680  63.9939   C.2       1 RES1   0.0000
    18 C18     26.6044   4.4700  64.0109   C.2       1 RES1   0.0000
    19 C19     25.4904   3.9740  63.2909   C.1       1 RES1   0.0000
    20 N20     24.5863   3.5750  62.6989   N.1       1 RES1   0.0000
    21 C21     27.4424   3.7830  64.8939   C.2       1 RES1   0.0000
    22 N22     28.3644   4.6020  65.4179   N.2       1 RES1   0.0000
    23 N23     28.1114   5.8200  64.8389   N.pl3     1 RES1   0.0000
    24 H1      26.1859  10.9327  61.0271   H         1 RES1   0.0000
    25 H2      24.8108  10.7522  62.1402   H         1 RES1   0.0000
    26 H3      25.0093   8.3395  62.0747   H         1 RES1   0.0000
    27 H4      27.1475   9.9988  63.0156   H         1 RES1   0.0000
    28 H5      28.9227   9.0592  64.4631   H         1 RES1   0.0000
    29 H6      30.0560   6.1110  66.4540   H         1 RES1   0.0000
    30 H7      32.4311   7.0050  64.8802   H         1 RES1   0.0000
    31 H8      31.3273   7.9622  63.8663   H         1 RES1   0.0000
    32 H9      32.5587   8.7785  64.8562   H         1 RES1   0.0000
    33 H10     27.3572   2.7223  65.1254   H         1 RES1   0.0000
    34 H11     25.9819  10.2375  58.7102   H         1 RES1   0.0000
    35 H12     24.0514  11.2313  59.8568   H         1 RES1   0.0000
    36 H13     23.5335   9.6116  60.3773   H         1 RES1   0.0000
    37 H14     23.9416  10.5601  57.5073   H         1 RES1   0.0000
    38 H15     24.7034   9.1984  56.9481   H         1 RES1   0.0000
    39 H16     26.1779   7.8267  58.4194   H         1 RES1   0.0000
    40 H17     24.7370   7.5624  59.4276   H         1 RES1   0.0000
    41 H18     26.6499   7.1451  60.8023   H         1 RES1   0.0000
    42 H19     27.4344   8.6523  60.2773   H         1 RES1   0.0000
    43 H20     32.2643   8.8342  67.4054   H         1 RES1   0.0000
    44 H21     30.8358   8.0551  68.1229   H         1 RES1   0.0000
    45 H22     32.1367   7.0606  67.4294   H         1 RES1   0.0000
    46 H23     30.3369   8.9635  65.8877   H         1 RES1   0.0000
@<TRIPOS>BOND
     1     1     2    1
     2     2     3    1
     3     2     4    1
     4     4     5    1
     5     5     6    2
     6     5    23    1
     7     6     7    1
     8     7     8    1
     9     7    16    2
    10     8     9    1
    11     9    10    1
    12     9    15    1
    13    10    11    1
    14    11    12    1
    15    12    13    1
    16    12    14    1
    17    14    15    1
    18    16    17    1
    19    17    18    2
    20    17    23    1
    21    18    19    1
    22    18    21    1
    23    19    20    3
    24    21    22    2
    25    22    23    1
    26    10    24    1
    27    10    25    1
    28     9    26    1
    29     8    27    1
    30     6    28    1
    31     4    29    1
    32     3    30    1
    33     3    31    1
    34     3    32    1
    35    21    33    1
    36    12    34    1
    37    11    35    1
    38    11    36    1
    39    13    37    1
    40    13    38    1
    41    14    39    1
    42    14    40    1
    43    15    41    1
    44    15    42    1
    45     1    43    1
    46     1    44    1
    47     1    45    1
    48     2    46    1
@<TRIPOS>SUBSTRUCTURE
     1 RES1        1 GROUP             0 ****  ****    0  
@<TRIPOS>MOLECULE
3EZR:A:EZR300
    61    66     1     0     0
SMALL
NO_CHARGES
****
Generated from the CSD

@<TRIPOS>ATOM
     1 C1      24.0388   2.2170  60.8624   C.2       1 RES1   0.0000
     2 C2      31.3767   8.0678  66.6365   C.2       1 RES1   0.0000
     3 C3      31.1697  10.0258  65.2485   C.2       1 RES1   0.0000
     4 C4      23.1798   1.5730  60.0044   C.2       1 RES1   0.0000
     5 C5      25.3438   3.2479  63.1605   C.2       1 RES1   0.0000
     6 C6      26.8168   5.0919  63.7645   C.2       1 RES1   0.0000
     7 C7      29.7298   8.2338  64.8435   C.2       1 RES1   0.0000
     8 C8      26.3468   3.8059  63.9115   C.2       1 RES1   0.0000
     9 C9      22.0258   2.2000  59.5914   C.2       1 RES1   0.0000
    10 C10     28.7428   6.3409  64.9735   C.2       1 RES1   0.0000
    11 C11     29.6208   9.5678  62.1614   C.3       1 RES1   0.0000
    12 C12     29.9088  11.6518  63.4485   C.3       1 RES1   0.0000
    13 C13     30.2118  12.1758  62.0554   C.3       1 RES1   0.0000
    14 C14     21.0148   5.6159  60.8314   C.3       1 RES1   0.0000
    15 C15     31.7687   9.3378  66.2775   C.2       1 RES1   0.0000
    16 C16     26.2338   5.9179  62.8175   C.2       1 RES1   0.0000
    17 C17     25.2088   5.3689  62.0724   C.2       1 RES1   0.0000
    18 C18     21.7538   3.4649  60.0584   C.2       1 RES1   0.0000
    19 C19     24.7708   4.0699  62.2184   C.2       1 RES1   0.0000
    20 C20     23.7778   3.4859  61.3444   C.2       1 RES1   0.0000
    21 C21     30.3448   7.5598  65.8805   C.2       1 RES1   0.0000
    22 C22     30.1398   9.5098  64.4865   C.2       1 RES1   0.0000
    23 C23     22.6198   4.0999  60.9244   C.2       1 RES1   0.0000
    24 C24     27.8588   5.1889  64.7255   C.2       1 RES1   0.0000
    25 C25     28.6788  10.3078  61.2364   C.3       1 RES1   0.0000
    26 C26     28.2898  12.6537  60.5504   C.3       1 RES1   0.0000
    27 N27     28.7408   7.4608  64.2885   N.2       1 RES1   0.0000
    28 N28     28.0338   4.0569  65.4105   N.2       1 RES1   0.0000
    29 N29     29.7008   6.3609  65.9425   N.pl3     1 RES1   0.0000
    30 N30     27.1048   3.2429  64.8925   N.pl3     1 RES1   0.0000
    31 N31     29.5428  10.2408  63.4415   N.3       1 RES1   0.0000
    32 N32     21.1348   1.5740  58.7134   N.pl3     1 RES1   0.0000
    33 N33     29.2708  11.6518  61.0174   N.3       1 RES1   0.0000
    34 O34     22.3058   5.3689  61.3654   O.3       1 RES1   0.0000
    35 H1      20.2893   2.0535  58.4210   H         1 RES1   0.0000
    36 H2      21.3337   0.6403  58.3687   H         1 RES1   0.0000
    37 H3      27.6959  10.4002  61.6960   H         1 RES1   0.0000
    38 H4      28.5883   9.7779  60.2893   H         1 RES1   0.0000
    39 H5      28.8163  13.5015  60.1145   H         1 RES1   0.0000
    40 H6      27.6412  12.2043  59.7999   H         1 RES1   0.0000
    41 H7      27.6891  12.9936  61.3927   H         1 RES1   0.0000
    42 H8      29.9002   5.6116  66.5976   H         1 RES1   0.0000
    43 H9      26.9765   2.2859  65.2053   H         1 RES1   0.0000
    44 H10     26.5657   6.9444  62.6687   H         1 RES1   0.0000
    45 H11     20.3173   4.8691  61.2078   H         1 RES1   0.0000
    46 H12     20.6814   6.6081  61.1319   H         1 RES1   0.0000
    47 H13     21.0548   5.5601  59.7446   H         1 RES1   0.0000
    48 H14     31.2249  11.8808  61.7862   H         1 RES1   0.0000
    49 H15     30.1420  13.2625  62.0704   H         1 RES1   0.0000
    50 H16     29.0831  12.2257  63.8666   H         1 RES1   0.0000
    51 H17     30.7928  11.7812  64.0712   H         1 RES1   0.0000
    52 H18     30.6382   9.6083  61.7751   H         1 RES1   0.0000
    53 H19     29.3118   8.5284  62.2620   H         1 RES1   0.0000
    54 H20     23.4114   0.5690  59.6520   H         1 RES1   0.0000
    55 H21     31.5259  11.0298  65.0227   H         1 RES1   0.0000
    56 H22     31.8431   7.5127  67.4490   H         1 RES1   0.0000
    57 H23     24.9528   1.7123  61.1719   H         1 RES1   0.0000
    58 H24     20.8436   3.9713  59.7406   H         1 RES1   0.0000
    59 H25     24.7197   5.9965  61.3288   H         1 RES1   0.0000
    60 H26     25.0210   2.2174  63.3015   H         1 RES1   0.0000
    61 H27     32.5800   9.8133  66.8266   H         1 RES1   0.0000
@<TRIPOS>BOND
     1     1     4    2
     2     1    20    1
     3     2    15    2
     4     2    21    1
     5     3    15    1
     6     3    22    2
     7     4     9    1
     8     5     8    2
     9     5    19    1
    10     6     8    1
    11     6    16    2
    12     6    24    1
    13     7    21    2
    14     7    22    1
    15     7    27    1
    16     8    30    1
    17     9    18    2
    18     9    32    1
    19    10    24    1
    20    10    27    2
    21    10    29    1
    22    11    25    1
    23    11    31    1
    24    12    13    1
    25    12    31    1
    26    13    33    1
    27    14    34    1
    28    16    17    1
    29    17    19    2
    30    18    23    1
    31    19    20    1
    32    20    23    2
    33    21    29    1
    34    22    31    1
    35    23    34    1
    36    24    28    2
    37    25    33    1
    38    26    33    1
    39    28    30    1
    40    32    35    1
    41    32    36    1
    42    25    37    1
    43    25    38    1
    44    26    39    1
    45    26    40    1
    46    26    41    1
    47    29    42    1
    48    30    43    1
    49    16    44    1
    50    14    45    1
    51    14    46    1
    52    14    47    1
    53    13    48    1
    54    13    49    1
    55    12    50    1
    56    12    51    1
    57    11    52    1
    58    11    53    1
    59     4    54    1
    60     3    55    1
    61     2    56    1
    62     1    57    1
    63    18    58    1
    64    17    59    1
    65     5    60    1
    66    15    61    1
@<TRIPOS>SUBSTRUCTURE
     1 RES1        1 GROUP             0 ****  ****    0  
@<TRIPOS>MOLECULE
2VU3:A:LZE1299
    42    44     1     0     0
SMALL
NO_CHARGES
****
Generated from the CSD

@<TRIPOS>ATOM
     1 C1      32.1708   9.3441  64.6727   C.3       1 RES1   0.0000
     2 C2      31.4017   8.0221  64.6027   C.3       1 RES1   0.0000
     3 C3      30.3617   7.9571  65.7237   C.3       1 RES1   0.0000
     4 N4      29.6007   6.7121  65.6687   N.am      1 RES1   0.0000
     5 C5      28.4257   6.6011  64.9947   C.2       1 RES1   0.0000
     6 O6      27.8507   7.5641  64.4597   O.2       1 RES1   0.0000
     7 C7      27.8457   5.2550  64.9167   C.2       1 RES1   0.0000
     8 N8      28.2807   4.1850  65.6507   N.pl3     1 RES1   0.0000
     9 N9      27.4936   3.1500  65.2577   N.2       1 RES1   0.0000
    10 C10     26.5806   3.5510  64.3287   C.2       1 RES1   0.0000
    11 C11     26.7946   4.8920  64.0937   C.2       1 RES1   0.0000
    12 N12     26.1636   5.7780  63.2227   N.am      1 RES1   0.0000
    13 C13     25.3136   5.4250  62.2386   C.2       1 RES1   0.0000
    14 O14     24.9226   4.2680  62.0826   O.2       1 RES1   0.0000
    15 C15     24.8126   6.5441  61.3836   C.2       1 RES1   0.0000
    16 C16     23.5015   6.9491  61.4616   C.2       1 RES1   0.0000
    17 C17     23.0255   8.0151  60.6966   C.2       1 RES1   0.0000
    18 C18     23.8846   8.6811  59.8406   C.2       1 RES1   0.0000
    19 C19     25.2116   8.3001  59.7696   C.2       1 RES1   0.0000
    20 C20     25.6636   7.2361  60.5396   C.2       1 RES1   0.0000
    21 C21     31.0427   8.1371  67.0868   C.3       1 RES1   0.0000
    22 N22     32.8028   9.5171  66.0107   N.3       1 RES1   0.0000
    23 C23     31.8097   9.4571  67.1238   C.3       1 RES1   0.0000
    24 Cl24    27.3106   6.7431  60.4056   Cl        1 RES1   0.0000
    25 Cl25    22.4265   6.1181  62.5216   Cl        1 RES1   0.0000
    26 H1      31.4817  10.1682  64.4939   H         1 RES1   0.0000
    27 H2      32.9464   9.3471  63.9082   H         1 RES1   0.0000
    28 H3      21.9832   8.3211  60.7731   H         1 RES1   0.0000
    29 H4      29.0275   4.1684  66.3379   H         1 RES1   0.0000
    30 H5      23.5172   9.5014  59.2258   H         1 RES1   0.0000
    31 H6      31.7356   7.3138  67.2541   H         1 RES1   0.0000
    32 H7      30.2856   8.1391  67.8695   H         1 RES1   0.0000
    33 H8      26.3597   6.7671  63.3387   H         1 RES1   0.0000
    34 H9      25.8219   2.9269  63.8588   H         1 RES1   0.0000
    35 H10     33.2673  10.4192  66.0371   H         1 RES1   0.0000
    36 H11     25.8991   8.8315  59.1132   H         1 RES1   0.0000
    37 H12     32.3326   9.5410  68.0753   H         1 RES1   0.0000
    38 H13     31.1070  10.2827  67.0218   H         1 RES1   0.0000
    39 H14     29.6655   8.7828  65.5843   H         1 RES1   0.0000
    40 H15     29.9636   5.8973  66.1530   H         1 RES1   0.0000
    41 H16     32.0998   7.1934  64.7109   H         1 RES1   0.0000
    42 H17     30.8981   7.9492  63.6399   H         1 RES1   0.0000
@<TRIPOS>BOND
     1     1     2    1
     2     1    22    1
     3     2     3    1
     4     3     4    1
     5     3    21    1
     6     4     5   am
     7     5     6    2
     8     5     7    1
     9     7     8    1
    10     7    11    2
    11     8     9    1
    12     9    10    2
    13    10    11    1
    14    11    12    1
    15    12    13   am
    16    13    14    2
    17    13    15    1
    18    15    16    2
    19    15    20    1
    20    16    17    1
    21    16    25    1
    22    17    18    2
    23    18    19    1
    24    19    20    2
    25    20    24    1
    26    21    23    1
    27    22    23    1
    28     1    26    1
    29     1    27    1
    30    17    28    1
    31     8    29    1
    32    18    30    1
    33    21    31    1
    34    21    32    1
    35    12    33    1
    36    10    34    1
    37    22    35    1
    38    19    36    1
    39    23    37    1
    40    23    38    1
    41     3    39    1
    42     4    40    1
    43     2    41    1
    44     2    42    1
@<TRIPOS>SUBSTRUCTURE
     1 RES1        1 GROUP             0 ****  ****    0  
@<TRIPOS>MOLECULE
2VTR:A:LZB1299
    26    27     1     0     0
SMALL
NO_CHARGES
****
Generated from the CSD

@<TRIPOS>ATOM
     1 C1      31.5098   7.9342  67.1480   C.3       1 RES1   0.0000
     2 C2      30.6498   7.9732  65.8950   C.3       1 RES1   0.0000
     3 C3      31.4908   8.1252  64.6311   C.3       1 RES1   0.0000
     4 N4      29.8298   6.7671  65.8070   N.pl3     1 RES1   0.0000
     5 C5      28.7128   6.6991  64.9561   C.2       1 RES1   0.0000
     6 C6      28.2498   7.8152  64.2651   C.2       1 RES1   0.0000
     7 C7      27.1518   7.6461  63.4271   C.2       1 RES1   0.0000
     8 Cl8     26.5228   8.9942  62.5471   Cl        1 RES1   0.0000
     9 N9      26.5158   6.4901  63.2261   N.2       1 RES1   0.0000
    10 C10     26.9528   5.4201  63.9081   C.2       1 RES1   0.0000
    11 C11     26.5138   4.1161  63.9441   C.2       1 RES1   0.0000
    12 C12     25.4158   3.6041  63.2011   C.1       1 RES1   0.0000
    13 N13     24.5379   3.1941  62.5971   N.1       1 RES1   0.0000
    14 C14     27.3738   3.4381  64.7951   C.2       1 RES1   0.0000
    15 N15     28.3248   4.2811  65.3061   N.2       1 RES1   0.0000
    16 N16     28.0278   5.5021  64.7681   N.pl3     1 RES1   0.0000
    17 H1      27.3025   2.3763  65.0264   H         1 RES1   0.0000
    18 H2      28.7298   8.7863  64.3764   H         1 RES1   0.0000
    19 H3      30.0721   5.9601  66.3730   H         1 RES1   0.0000
    20 H4      32.1762   7.2831  64.5477   H         1 RES1   0.0000
    21 H5      30.8369   8.1486  63.7606   H         1 RES1   0.0000
    22 H6      32.0596   9.0524  64.6829   H         1 RES1   0.0000
    23 H7      29.9844   8.8323  65.9660   H         1 RES1   0.0000
    24 H8      32.0788   8.8594  67.2267   H         1 RES1   0.0000
    25 H9      30.8712   7.8252  68.0233   H         1 RES1   0.0000
    26 H10     32.1955   7.0900  67.0915   H         1 RES1   0.0000
@<TRIPOS>BOND
     1     1     2    1
     2     2     3    1
     3     2     4    1
     4     4     5    1
     5     5     6    2
     6     5    16    1
     7     6     7    1
     8     7     8    1
     9     7     9    2
    10     9    10    1
    11    10    11    2
    12    10    16    1
    13    11    12    1
    14    11    14    1
    15    12    13    3
    16    14    15    2
    17    15    16    1
    18    14    17    1
    19     6    18    1
    20     4    19    1
    21     3    20    1
    22     3    21    1
    23     3    22    1
    24     2    23    1
    25     1    24    1
    26     1    25    1
    27     1    26    1
@<TRIPOS>SUBSTRUCTURE
     1 RES1        1 GROUP             0 ****  ****    0  
@<TRIPOS>MOLECULE
3R9D:A:X6B590
    41    43     1     0     0
SMALL
NO_CHARGES
****
Generated from the CSD

@<TRIPOS>ATOM
     1 N1      28.4955   4.1910  65.3976   N.pl3     1 RES1   0.0000
     2 N2      29.8135   5.9490  65.9476   N.2       1 RES1   0.0000
     3 N3      25.2876   6.1360  62.5496   N.am      1 RES1   0.0000
     4 N4      26.9115   2.7130  64.5916   N.pl3     1 RES1   0.0000
     5 N5      32.4344  11.9320  64.3076   N.pl3     1 RES1   0.0000
     6 C6      26.8075   4.9620  63.9516   C.2       1 RES1   0.0000
     7 C7      27.3745   3.8930  64.6396   C.2       1 RES1   0.0000
     8 C8      28.7875   5.4690  65.2956   C.2       1 RES1   0.0000
     9 C9      30.5395   7.0010  65.6776   C.2       1 RES1   0.0000
    10 C10     25.6956   4.9330  63.1306   C.2       1 RES1   0.0000
    11 C11     31.5384   7.3570  66.6296   C.2       1 RES1   0.0000
    12 C12     32.3754   8.4790  66.4166   C.2       1 RES1   0.0000
    13 C13     32.2264   9.2630  65.2436   C.2       1 RES1   0.0000
    14 C14     31.2395   8.9370  64.2776   C.2       1 RES1   0.0000
    15 C15     30.3945   7.8110  64.4866   C.2       1 RES1   0.0000
    16 C16     24.2116   6.3310  61.7156   C.2       1 RES1   0.0000
    17 C17     24.2826   7.3740  60.7496   C.2       1 RES1   0.0000
    18 C18     23.1836   7.6210  59.8716   C.2       1 RES1   0.0000
    19 C19     22.0076   6.8170  59.9606   C.2       1 RES1   0.0000
    20 C20     21.9286   5.7730  60.9206   C.2       1 RES1   0.0000
    21 C21     23.0206   5.5300  61.7976   C.2       1 RES1   0.0000
    22 O22     25.0836   3.8830  62.9296   O.2       1 RES1   0.0000
    23 O23     34.3174  10.2510  64.0796   O.2       1 RES1   0.0000
    24 O24     33.8884  11.0380  66.2636   O.2       1 RES1   0.0000
    25 F25     20.8366   5.0240  61.0036   F         1 RES1   0.0000
    26 S26     27.7295   6.3910  64.2756   S.3       1 RES1   0.0000
    27 S27     33.2924  10.6570  64.9876   S.o2      1 RES1   0.0000
    28 H1      22.9546   4.7323  62.5360   H         1 RES1   0.0000
    29 H2      21.1693   7.0043  59.2912   H         1 RES1   0.0000
    30 H3      23.2427   8.4214  59.1355   H         1 RES1   0.0000
    31 H4      25.1799   7.9871  60.6796   H         1 RES1   0.0000
    32 H5      29.6358   7.5577  63.7476   H         1 RES1   0.0000
    33 H6      31.1292   9.5452  63.3810   H         1 RES1   0.0000
    34 H7      33.1337   8.7402  67.1533   H         1 RES1   0.0000
    35 H8      31.6594   6.7590  67.5316   H         1 RES1   0.0000
    36 H9      29.0165   3.5192  65.9520   H         1 RES1   0.0000
    37 H10     25.8460   6.9553  62.7666   H         1 RES1   0.0000
    38 H11     26.0893   2.5128  64.0311   H         1 RES1   0.0000
    39 H12     27.3632   1.9690  65.1137   H         1 RES1   0.0000
    40 H13     32.9054  12.8065  64.0989   H         1 RES1   0.0000
    41 H14     31.4452  11.8275  64.1056   H         1 RES1   0.0000
@<TRIPOS>BOND
     1     1     7    1
     2     1     8    1
     3     2     8    2
     4     2     9    1
     5     3    10   am
     6     3    16    1
     7     4     7    1
     8     5    27    1
     9     6     7    2
    10     6    10    1
    11     6    26    1
    12     8    26    1
    13     9    11    2
    14     9    15    1
    15    10    22    2
    16    11    12    1
    17    12    13    2
    18    13    14    1
    19    13    27    1
    20    14    15    2
    21    16    17    2
    22    16    21    1
    23    17    18    1
    24    18    19    2
    25    19    20    1
    26    20    21    2
    27    20    25    1
    28    23    27    2
    29    24    27    2
    30    21    28    1
    31    19    29    1
    32    18    30    1
    33    17    31    1
    34    15    32    1
    35    14    33    1
    36    12    34    1
    37    11    35    1
    38     1    36    1
    39     3    37    1
    40     4    38    1
    41     4    39    1
    42     5    40    1
    43     5    41    1
@<TRIPOS>SUBSTRUCTURE
     1 RES1        1 GROUP             0 ****  ****    0  
@<TRIPOS>MOLECULE
2R3N:A:SCZ501
    45    49     1     0     0
SMALL
NO_CHARGES
****
Generated from the CSD

@<TRIPOS>ATOM
     1 C1      26.5390   4.7199  64.1359   C.2       1 RES1   0.0000
     2 C2      27.2110   5.9139  63.9109   C.2       1 RES1   0.0000
     3 N3      28.4030   5.8079  64.6369   N.pl3     1 RES1   0.0000
     4 N4      28.4850   4.6089  65.3229   N.2       1 RES1   0.0000
     5 C5      27.3670   3.9659  64.9859   C.2       1 RES1   0.0000
     6 N6      26.9250   7.0469  63.2009   N.2       1 RES1   0.0000
     7 C7      27.8410   8.0208  63.2269   C.2       1 RES1   0.0000
     8 C8      29.1000   7.9868  63.9689   C.2       1 RES1   0.0000
     9 C9      29.3600   6.8499  64.6509   C.2       1 RES1   0.0000
    10 N10     30.4820   6.6269  65.3779   N.pl3     1 RES1   0.0000
    11 C11     27.5820   9.2768  62.4749   C.2       1 RES1   0.0000
    12 C12     31.7360   7.3568  65.3789   C.3       1 RES1   0.0000
    13 C13     31.7430   8.5058  66.3498   C.2       1 RES1   0.0000
    14 C14     31.7300   8.2698  67.7108   C.2       1 RES1   0.0000
    15 N15     31.7770   9.2518  68.6547   N.2       1 RES1   0.0000
    16 C16     31.8250  10.5218  68.2038   C.2       1 RES1   0.0000
    17 C17     31.8140  10.8648  66.8618   C.2       1 RES1   0.0000
    18 C18     31.7690   9.8388  65.9208   C.2       1 RES1   0.0000
    19 C19     26.2850   9.5438  62.0540   C.2       1 RES1   0.0000
    20 C20     25.9890  10.7118  61.3460   C.2       1 RES1   0.0000
    21 C21     27.0070  11.6008  61.0170   C.2       1 RES1   0.0000
    22 C22     28.3210  11.3378  61.4330   C.2       1 RES1   0.0000
    23 C23     28.6100  10.1758  62.1660   C.2       1 RES1   0.0000
    24 C24     25.1890   4.2519  63.6459   C.3       1 RES1   0.0000
    25 C25     24.1740   5.2419  63.1649   C.3       1 RES1   0.0000
    26 C26     24.8340   4.2939  62.1850   C.3       1 RES1   0.0000
    27 H1      30.4388   5.8360  66.0126   H         1 RES1   0.0000
    28 H2      24.7757   3.4043  64.1907   H         1 RES1   0.0000
    29 H3      29.7892   8.8300  63.9718   H         1 RES1   0.0000
    30 H4      26.7852  12.4968  60.4392   H         1 RES1   0.0000
    31 H5      29.1188  12.0369  61.1866   H         1 RES1   0.0000
    32 H6      29.6291   9.9746  62.4928   H         1 RES1   0.0000
    33 H7      31.9120   7.7468  64.3775   H         1 RES1   0.0000
    34 H8      32.5376   6.6702  65.6471   H         1 RES1   0.0000
    35 H9      31.6791   7.2363  68.0502   H         1 RES1   0.0000
    36 H10     31.8398  11.9082  66.5509   H         1 RES1   0.0000
    37 H11     24.4161   6.3034  63.1431   H         1 RES1   0.0000
    38 H12     23.1237   5.1144  63.4230   H         1 RES1   0.0000
    39 H13     27.1211   2.9631  65.3322   H         1 RES1   0.0000
    40 H14     25.4897   8.8345  62.2785   H         1 RES1   0.0000
    41 H15     24.2601   3.4829  61.7391   H         1 RES1   0.0000
    42 H16     25.5525   4.6720  61.4592   H         1 RES1   0.0000
    43 H17     31.8754  11.3248  68.9377   H         1 RES1   0.0000
    44 H18     24.9624  10.9257  61.0522   H         1 RES1   0.0000
    45 H19     31.7541  10.0719  64.8571   H         1 RES1   0.0000
@<TRIPOS>BOND
     1     1     2    2
     2     1     5    1
     3     1    24    1
     4     2     3    1
     5     2     6    1
     6     3     4    1
     7     3     9    1
     8     4     5    2
     9     6     7    2
    10     7     8    1
    11     7    11    1
    12     8     9    2
    13     9    10    1
    14    10    12    1
    15    11    19    2
    16    11    23    1
    17    12    13    1
    18    13    14    2
    19    13    18    1
    20    14    15    1
    21    15    16    2
    22    16    17    1
    23    17    18    2
    24    19    20    1
    25    20    21    2
    26    21    22    1
    27    22    23    2
    28    24    25    1
    29    24    26    1
    30    25    26    1
    31    10    27    1
    32    24    28    1
    33     8    29    1
    34    21    30    1
    35    22    31    1
    36    23    32    1
    37    12    33    1
    38    12    34    1
    39    14    35    1
    40    17    36    1
    41    25    37    1
    42    25    38    1
    43     5    39    1
    44    19    40    1
    45    26    41    1
    46    26    42    1
    47    16    43    1
    48    20    44    1
    49    18    45    1
@<TRIPOS>SUBSTRUCTURE
     1 RES1        1 GROUP             0 ****  ****    0  
@<TRIPOS>MOLECULE
2R3M:A:SCX501
    45    48     1     0     0
SMALL
NO_CHARGES
****
Generated from the CSD

@<TRIPOS>ATOM
     1 C1      26.0602   4.1909  63.9672   C.2       1 RES1   0.0000
     2 C2      26.6332   5.3899  63.5872   C.2       1 RES1   0.0000
     3 N3      27.8642   5.4619  64.2282   N.pl3     1 RES1   0.0000
     4 N4      28.1052   4.3499  65.0102   N.2       1 RES1   0.0000
     5 C5      27.0212   3.5909  64.8312   C.2       1 RES1   0.0000
     6 N6      26.1872   6.3798  62.7392   N.2       1 RES1   0.0000
     7 C7      26.9672   7.3968  62.5732   C.2       1 RES1   0.0000
     8 C8      28.3042   7.5628  63.2172   C.2       1 RES1   0.0000
     9 C9      28.7392   6.5568  64.0112   C.2       1 RES1   0.0000
    10 N10     29.9782   6.5048  64.6332   N.pl3     1 RES1   0.0000
    11 C11     26.5482   8.4808  61.6542   C.2       1 RES1   0.0000
    12 C12     31.1832   7.2568  64.3492   C.3       1 RES1   0.0000
    13 C13     31.2802   8.4498  65.2252   C.2       1 RES1   0.0000
    14 C14     31.2512   9.7238  64.7132   C.2       1 RES1   0.0000
    15 N15     31.3032  10.8337  65.4732   N.2       1 RES1   0.0000
    16 C16     31.3682  10.6447  66.8042   C.2       1 RES1   0.0000
    17 N17     31.3992   9.4478  67.4122   N.2       1 RES1   0.0000
    18 C18     31.3362   8.3758  66.6122   C.2       1 RES1   0.0000
    19 C19     26.4392   8.2048  60.2942   C.2       1 RES1   0.0000
    20 C20     26.0292   9.1818  59.3823   C.2       1 RES1   0.0000
    21 C21     25.7482  10.4757  59.8273   C.2       1 RES1   0.0000
    22 C22     25.8642  10.7737  61.1842   C.2       1 RES1   0.0000
    23 C23     26.2562   9.7738  62.0892   C.2       1 RES1   0.0000
    24 C24     24.7422   3.6529  63.5462   C.3       1 RES1   0.0000
    25 N25     31.4022  11.7457  67.5912   N.pl3     1 RES1   0.0000
    26 C26     23.6022   4.6049  63.8602   C.3       1 RES1   0.0000
    27 F27     26.6952   6.9948  59.8233   F         1 RES1   0.0000
    28 F28     26.3452  10.1058  63.3882   F         1 RES1   0.0000
    29 H1      24.5659   2.7125  64.0662   H         1 RES1   0.0000
    30 H2      24.7638   3.4752  62.4720   H         1 RES1   0.0000
    31 H3      23.7627   5.5477  63.3394   H         1 RES1   0.0000
    32 H4      22.6613   4.1650  63.5329   H         1 RES1   0.0000
    33 H5      23.5648   4.7849  64.9336   H         1 RES1   0.0000
    34 H6      31.4513  11.6470  68.6002   H         1 RES1   0.0000
    35 H7      31.3786  12.6699  67.1723   H         1 RES1   0.0000
    36 H8      31.1823   9.8427  63.6329   H         1 RES1   0.0000
    37 H9      30.0509   5.8430  65.3993   H         1 RES1   0.0000
    38 H10     28.9046   8.4567  63.0546   H         1 RES1   0.0000
    39 H11     31.1661   7.5785  63.3089   H         1 RES1   0.0000
    40 H12     32.0497   6.6191  64.5177   H         1 RES1   0.0000
    41 H13     25.6512  11.7800  61.5418   H         1 RES1   0.0000
    42 H14     25.9290   8.9345  58.3265   H         1 RES1   0.0000
    43 H15     25.4412  11.2450  59.1204   H         1 RES1   0.0000
    44 H16     31.3284   7.3898  67.0745   H         1 RES1   0.0000
    45 H17     26.8859   2.6157  65.2967   H         1 RES1   0.0000
@<TRIPOS>BOND
     1     1     2    2
     2     1     5    1
     3     1    24    1
     4     2     3    1
     5     2     6    1
     6     3     4    1
     7     3     9    1
     8     4     5    2
     9     6     7    2
    10     7     8    1
    11     7    11    1
    12     8     9    2
    13     9    10    1
    14    10    12    1
    15    11    19    2
    16    11    23    1
    17    12    13    1
    18    13    14    2
    19    13    18    1
    20    14    15    1
    21    15    16    2
    22    16    17    1
    23    16    25    1
    24    17    18    2
    25    19    20    1
    26    19    27    1
    27    20    21    2
    28    21    22    1
    29    22    23    2
    30    23    28    1
    31    24    26    1
    32    24    29    1
    33    24    30    1
    34    26    31    1
    35    26    32    1
    36    26    33    1
    37    25    34    1
    38    25    35    1
    39    14    36    1
    40    10    37    1
    41     8    38    1
    42    12    39    1
    43    12    40    1
    44    22    41    1
    45    20    42    1
    46    21    43    1
    47    18    44    1
    48     5    45    1
@<TRIPOS>SUBSTRUCTURE
     1 RES1        1 GROUP             0 ****  ****    0  
@<TRIPOS>MOLECULE
5IEV:A:R0N1001
    51    53     1     0     0
SMALL
NO_CHARGES
****
Generated from the CSD

@<TRIPOS>ATOM
     1 C1      26.5325   4.7510  64.0259   C.2       1 RES1   0.0000
     2 C2      26.9865   6.0251  63.7349   C.2       1 RES1   0.0000
     3 C3      28.8945   5.6361  65.0549   C.2       1 RES1   0.0000
     4 C4      27.2955   3.9580  64.8869   C.2       1 RES1   0.0000
     5 C5      30.3916   8.1841  64.4569   C.2       1 RES1   0.0000
     6 C6      32.2296   9.5031  65.2769   C.2       1 RES1   0.0000
     7 C7      31.7476   7.4451  66.3029   C.2       1 RES1   0.0000
     8 C8      33.9656  11.5891  66.6399   C.3       1 RES1   0.0000
     9 C9      33.0786  12.1801  67.7698   C.3       1 RES1   0.0000
    10 C10     26.4295   8.0651  60.9060   C.3       1 RES1   0.0000
    11 C11     26.6285   6.8311  60.0620   C.3       1 RES1   0.0000
    12 C12     33.7236  13.0911  66.7209   C.3       1 RES1   0.0000
    13 S13     33.1966  10.9251  65.1409   S.2       1 RES1   0.0000
    14 N14     32.3646  12.0501  64.3889   N.pl3     1 RES1   0.0000
    15 O15     34.2986  10.5511  64.2229   O.2       1 RES1   0.0000
    16 C16     32.5466   8.5661  66.2309   C.2       1 RES1   0.0000
    17 C17     31.1726   9.3261  64.3939   C.2       1 RES1   0.0000
    18 C18     30.6696   7.2241  65.4339   C.2       1 RES1   0.0000
    19 N19     30.0266   6.0641  65.6109   N.pl3     1 RES1   0.0000
    20 N20     28.1665   6.4181  64.2679   N.2       1 RES1   0.0000
    21 N21     28.4125   4.4220  65.4029   N.2       1 RES1   0.0000
    22 C22     25.2195   4.2160  63.4879   C.3       1 RES1   0.0000
    23 F23     25.0935   2.8870  63.8889   F         1 RES1   0.0000
    24 F24     24.2234   4.8980  63.9829   F         1 RES1   0.0000
    25 F25     25.1355   4.3990  62.1489   F         1 RES1   0.0000
    26 O26     26.2865   6.8921  62.9179   O.3       1 RES1   0.0000
    27 C27     27.0475   7.8821  62.3219   C.3       1 RES1   0.0000
    28 C28     26.7455   9.1571  63.1069   C.3       1 RES1   0.0000
    29 O29     25.0435   8.3681  61.0950   O.3       1 RES1   0.0000
    30 H1      25.6674   9.2966  63.1719   H         1 RES1   0.0000
    31 H2      27.1618   9.0732  64.1097   H         1 RES1   0.0000
    32 H3      27.1920  10.0106  62.5988   H         1 RES1   0.0000
    33 H4      28.1094   7.6423  62.2939   H         1 RES1   0.0000
    34 H5      33.1016  13.5804  65.9728   H         1 RES1   0.0000
    35 H6      34.5370  13.7559  67.0078   H         1 RES1   0.0000
    36 H7      24.5972   7.6064  61.5496   H         1 RES1   0.0000
    37 H8      30.4636   5.4188  66.2611   H         1 RES1   0.0000
    38 H9      30.9566  10.0894  63.6478   H         1 RES1   0.0000
    39 H10     33.3934   8.7034  66.9018   H         1 RES1   0.0000
    40 H11     32.7799  12.9606  64.2195   H         1 RES1   0.0000
    41 H12     31.4177  11.8584  64.0777   H         1 RES1   0.0000
    42 H13     26.9122   8.9096  60.4163   H         1 RES1   0.0000
    43 H14     26.1486   5.9805  60.5438   H         1 RES1   0.0000
    44 H15     26.1867   6.9884  59.0791   H         1 RES1   0.0000
    45 H16     27.6939   6.6333  59.9537   H         1 RES1   0.0000
    46 H17     33.4376  12.1904  68.7979   H         1 RES1   0.0000
    47 H18     32.0022  12.0149  67.7628   H         1 RES1   0.0000
    48 H19     34.9531  11.2185  66.9109   H         1 RES1   0.0000
    49 H20     31.9627   6.6996  67.0670   H         1 RES1   0.0000
    50 H21     29.5723   8.0362  63.7549   H         1 RES1   0.0000
    51 H22     26.9634   2.9503  65.1320   H         1 RES1   0.0000
@<TRIPOS>BOND
     1     1     2    2
     2     1     4    1
     3     1    22    1
     4     2    20    1
     5     2    26    1
     6     3    19    1
     7     3    20    2
     8     3    21    1
     9     4    21    2
    10     5    17    2
    11     5    18    1
    12     6    13    1
    13     6    16    2
    14     6    17    1
    15     7    16    1
    16     7    18    2
    17     8     9    1
    18     8    12    1
    19     8    13    1
    20     9    12    1
    21    10    11    1
    22    10    27    1
    23    10    29    1
    24    13    14    1
    25    13    15    2
    26    18    19    1
    27    22    23    1
    28    22    24    1
    29    22    25    1
    30    26    27    1
    31    27    28    1
    32    28    30    1
    33    28    31    1
    34    28    32    1
    35    27    33    1
    36    12    34    1
    37    12    35    1
    38    29    36    1
    39    19    37    1
    40    17    38    1
    41    16    39    1
    42    14    40    1
    43    14    41    1
    44    10    42    1
    45    11    43    1
    46    11    44    1
    47    11    45    1
    48     9    46    1
    49     9    47    1
    50     8    48    1
    51     7    49    1
    52     5    50    1
    53     4    51    1
@<TRIPOS>SUBSTRUCTURE
     1 RES1        1 GROUP             0 ****  ****    0  
@<TRIPOS>MOLECULE
2R3P:A:3SC501
    71    79     1     0     0
SMALL
NO_CHARGES
****
Generated from the CSD

@<TRIPOS>ATOM
     1 C1      26.1475   4.4019  64.0111   C.2       1 RES1   0.0000
     2 C2      26.1525   4.4069  64.0091   C.2       1 RES1   0.0000
     3 C3      26.7225   5.5979  63.6671   C.2       1 RES1   0.0000
     4 C4      26.7415   5.5949  63.6491   C.2       1 RES1   0.0000
     5 N5      27.9765   5.6159  64.2861   N.pl3     1 RES1   0.0000
     6 N6      27.9845   5.6189  64.2871   N.pl3     1 RES1   0.0000
     7 N7      28.2175   4.4579  65.0061   N.2       1 RES1   0.0000
     8 N8      28.2045   4.4709  65.0331   N.2       1 RES1   0.0000
     9 C9      27.1015   3.7309  64.8301   C.2       1 RES1   0.0000
    10 C10     27.0905   3.7449  64.8551   C.2       1 RES1   0.0000
    11 N11     26.2645   6.6319  62.9082   N.2       1 RES1   0.0000
    12 N12     26.3105   6.6189  62.8572   N.2       1 RES1   0.0000
    13 C13     27.0435   7.6349  62.7662   C.2       1 RES1   0.0000
    14 C14     27.1135   7.6159  62.7132   C.2       1 RES1   0.0000
    15 C15     28.4045   7.7559  63.3542   C.2       1 RES1   0.0000
    16 C16     28.4565   7.7479  63.3252   C.2       1 RES1   0.0000
    17 C17     28.8365   6.7079  64.1131   C.2       1 RES1   0.0000
    18 C18     28.8595   6.7019  64.1071   C.2       1 RES1   0.0000
    19 N19     30.0695   6.6319  64.7391   N.pl3     1 RES1   0.0000
    20 N20     30.0735   6.6279  64.7481   N.pl3     1 RES1   0.0000
    21 C21     26.6225   8.7719  61.9152   C.2       1 RES1   0.0000
    22 C22     26.6615   8.7079  61.8302   C.2       1 RES1   0.0000
    23 C23     31.2274   7.4479  64.4801   C.2       1 RES1   0.0000
    24 C24     31.2284   7.4469  64.4831   C.2       1 RES1   0.0000
    25 C25     31.2414   8.5829  65.4541   C.2       1 RES1   0.0000
    26 C26     31.2434   8.5829  65.4551   C.2       1 RES1   0.0000
    27 C27     31.3264   8.3469  66.8231   C.3       1 RES1   0.0000
    28 C28     31.3344   9.4329  67.6690   C.3       1 RES1   0.0000
    29 N29     31.2684  10.7328  67.2610   N.2       1 RES1   0.0000
    30 N30     31.2674  10.7328  67.2610   N.2       1 RES1   0.0000
    31 C31     31.1854  10.9388  65.9441   C.2       1 RES1   0.0000
    32 C32     31.1854  10.9378  65.9441   C.2       1 RES1   0.0000
    33 C33     31.1724   9.9098  65.0041   C.3       1 RES1   0.0000
    34 C34     26.3525   8.5949  60.5452   C.2       1 RES1   0.0000
    35 C35     26.5065  10.0158  62.2452   C.2       1 RES1   0.0000
    36 C36     25.9735   9.6949  59.7683   C.2       1 RES1   0.0000
    37 C37     26.0665  10.9548  61.3372   C.2       1 RES1   0.0000
    38 C38     25.8725  10.9498  60.3542   C.2       1 RES1   0.0000
    39 C39     25.7825  10.6218  60.0383   C.2       1 RES1   0.0000
    40 C40     26.1365  11.1198  61.7082   C.2       1 RES1   0.0000
    41 C41     25.9295   9.3169  59.6033   C.2       1 RES1   0.0000
    42 C42     26.5225  10.0358  62.4972   C.2       1 RES1   0.0000
    43 C43     26.3695   8.3459  60.5012   C.2       1 RES1   0.0000
    44 S44     24.5716   3.7919  63.5531   S.3       1 RES1   0.0000
    45 S45     24.5836   3.7949  63.5411   S.3       1 RES1   0.0000
    46 C46     23.8846   5.1869  62.8192   C.1       1 RES1   0.0000
    47 C47     23.9086   5.2009  62.8172   C.1       1 RES1   0.0000
    48 N48     23.4466   6.1779  62.3032   N.1       1 RES1   0.0000
    49 N49     23.4576   6.1869  62.3042   N.1       1 RES1   0.0000
    50 Cl50    26.4775   7.0529  59.8463   Cl        1 RES1   0.0000
    51 Cl51    26.8505  10.4698  63.8421   Cl        1 RES1   0.0000
    52 Cl52    25.6335   9.5899  58.0783   Cl        1 RES1   0.0000
    53 Cl53    25.8315  12.5758  61.7812   Cl        1 RES1   0.0000
    54 H1      26.4868   7.3130  60.1767   H         1 RES1   0.0000
    55 H2      25.7041   9.0514  58.5715   H         1 RES1   0.0000
    56 H3      26.0413  12.1074  62.1570   H         1 RES1   0.0000
    57 H4      25.4394  11.3884  59.3452   H         1 RES1   0.0000
    58 H5      25.5842  11.8074  59.7481   H         1 RES1   0.0000
    59 H6      26.7431  10.1746  63.5546   H         1 RES1   0.0000
    60 H7      31.1254  11.9643  65.5855   H         1 RES1   0.0000
    61 H8      31.1246  11.9653  65.5857   H         1 RES1   0.0000
    62 H9      31.4417   7.3356  67.2102   H         1 RES1   0.0000
    63 H10     31.9680   7.2683  63.7040   H         1 RES1   0.0000
    64 H11     26.9225   2.7667  65.3032   H         1 RES1   0.0000
    65 H12     31.3591   9.2395  68.7404   H         1 RES1   0.0000
    66 H13     31.9697   7.2684  63.7038   H         1 RES1   0.0000
    67 H14     29.0831   8.6235  63.1622   H         1 RES1   0.0000
    68 H15     29.0241   8.6358  63.1874   H         1 RES1   0.0000
    69 H16     30.1678   5.9235  65.4593   H         1 RES1   0.0000
    70 H17     30.1647   5.9289  65.4783   H         1 RES1   0.0000
    71 H18     26.9442   2.7440  65.2628   H         1 RES1   0.0000
@<TRIPOS>BOND
     1     1     3    2
     2     1     9    1
     3     1    44    1
     4     2     4    2
     5     2    10    1
     6     2    45    1
     7     3     5    1
     8     3    11    1
     9     4     6    1
    10     4    12    1
    11     5     7    1
    12     5    17    1
    13     6     8    1
    14     6    18    1
    15     7     9    2
    16     8    10    2
    17    11    13    2
    18    12    14    2
    19    13    15    1
    20    13    21    1
    21    14    16    1
    22    14    22    1
    23    15    17    2
    24    16    18    2
    25    17    19    1
    26    18    20    1
    27    19    23    1
    28    20    24    1
    29    21    34    2
    30    21    42    1
    31    22    35    2
    32    22    43    1
    33    23    25    2
    34    24    26    2
    35    25    27    1
    36    25    33    1
    37    26    27    1
    38    26    33    1
    39    27    28    1
    40    28    29    1
    41    28    30    1
    42    29    31    2
    43    30    32    2
    44    31    33    1
    45    32    33    1
    46    34    36    1
    47    34    50    1
    48    35    37    1
    49    35    51    1
    50    36    38    2
    51    36    52    1
    52    37    39    2
    53    37    53    1
    54    38    40    1
    55    39    41    1
    56    40    42    2
    57    41    43    2
    58    44    46    1
    59    45    47    1
    60    46    48    3
    61    47    49    3
    62    43    54    1
    63    41    55    1
    64    40    56    1
    65    39    57    1
    66    38    58    1
    67    42    59    1
    68    32    60    1
    69    31    61    1
    70    27    62    1
    71    24    63    1
    72    10    64    1
    73    28    65    1
    74    23    66    1
    75    16    67    1
    76    15    68    1
    77    19    69    1
    78    20    70    1
    79     9    71    1
@<TRIPOS>SUBSTRUCTURE
     1 RES1        1 GROUP             0 ****  ****    0  
@<TRIPOS>MOLECULE
2G9X:A:NU5299
    66    69     1     0     0
SMALL
NO_CHARGES
****
Generated from the CSD

@<TRIPOS>ATOM
     1 O1      33.8749  11.1597  65.9299   O.2       1 RES1   0.0000
     2 S2      32.9070  11.0887  64.8750   S.o2      1 RES1   0.0000
     3 O3      33.6439  10.9447  63.6391   O.2       1 RES1   0.0000
     4 C4      31.9560  12.4597  64.9030   C.3       1 RES1   0.0000
     5 C5      32.3550  13.3987  63.7800   C.3       1 RES1   0.0000
     6 N6      31.5910  13.1617  62.5661   N.3       1 RES1   0.0000
     7 C7      31.1390  14.2967  61.7682   C.3       1 RES1   0.0000
     8 C8      31.4960  14.1367  60.2913   C.3       1 RES1   0.0000
     9 C9      32.9850  14.3547  60.0173   C.3       1 RES1   0.0000
    10 O10     33.7619  13.3307  60.6602   O.3       1 RES1   0.0000
    11 C11     31.9960   9.7788  65.0310   C.2       1 RES1   0.0000
    12 C12     32.3870   8.7778  65.9059   C.2       1 RES1   0.0000
    13 C13     31.6240   7.6228  66.0429   C.2       1 RES1   0.0000
    14 C14     30.4560   7.4368  65.3170   C.2       1 RES1   0.0000
    15 C15     30.0551   8.4358  64.4300   C.2       1 RES1   0.0000
    16 C16     30.8230   9.5998  64.2910   C.2       1 RES1   0.0000
    17 N17     29.7791   6.2779  65.5229   N.pl3     1 RES1   0.0000
    18 C18     28.6261   5.8789  64.9350   C.2       1 RES1   0.0000
    19 N19     28.0091   6.6758  64.0350   N.2       1 RES1   0.0000
    20 C20     26.8552   6.3378  63.4341   C.2       1 RES1   0.0000
    21 C21     26.2572   5.0359  63.7660   C.2       1 RES1   0.0000
    22 N22     25.1682   4.3599  63.3811   N.2       1 RES1   0.0000
    23 C23     25.1852   3.1919  64.0640   C.2       1 RES1   0.0000
    24 N24     26.2662   3.0959  64.8830   N.pl3     1 RES1   0.0000
    25 C25     26.9772   4.2099  64.7450   C.2       1 RES1   0.0000
    26 N26     28.1221   4.6729  65.2800   N.2       1 RES1   0.0000
    27 O27     26.2642   7.1628  62.5331   O.3       1 RES1   0.0000
    28 C28     26.2002   8.5648  62.7601   C.3       1 RES1   0.0000
    29 C29     26.7362   9.2368  61.4912   C.3       1 RES1   0.0000
    30 C30     26.2622   8.4718  60.2303   C.3       1 RES1   0.0000
    31 C31     25.6772   9.2708  59.0603   C.3       1 RES1   0.0000
    32 C32     26.0382  10.7507  59.0923   C.3       1 RES1   0.0000
    33 C33     25.6412  11.3247  60.4493   C.3       1 RES1   0.0000
    34 C34     26.5132  10.7567  61.5632   C.3       1 RES1   0.0000
    35 H1      30.1846   5.6355  66.1961   H         1 RES1   0.0000
    36 H2      30.5019  10.3754  63.5973   H         1 RES1   0.0000
    37 H3      29.1449   8.3112  63.8452   H         1 RES1   0.0000
    38 H4      24.5924   9.1802  59.0896   H         1 RES1   0.0000
    39 H5      26.0520   8.8449  58.1308   H         1 RES1   0.0000
    40 H6      24.6005  11.0748  60.6502   H         1 RES1   0.0000
    41 H7      25.7564  12.4073  60.4248   H         1 RES1   0.0000
    42 H8      31.9503   6.8477  66.7348   H         1 RES1   0.0000
    43 H9      27.4854  11.2451  61.5157   H         1 RES1   0.0000
    44 H10     26.0383  10.9853  62.5161   H         1 RES1   0.0000
    45 H11     33.2982   8.8962  66.4904   H         1 RES1   0.0000
    46 H12     33.4931  12.4417  60.3089   H         1 RES1   0.0000
    47 H13     25.5028  11.2752  58.3023   H         1 RES1   0.0000
    48 H14     27.1106  10.8691  58.9444   H         1 RES1   0.0000
    49 H15     30.9255  14.8630  59.7142   H         1 RES1   0.0000
    50 H16     31.2272  13.1299  59.9749   H         1 RES1   0.0000
    51 H17     33.2832  15.3284  60.4032   H         1 RES1   0.0000
    52 H18     33.1622  14.3201  58.9434   H         1 RES1   0.0000
    53 H19     31.6095  15.2026  62.1475   H         1 RES1   0.0000
    54 H20     30.0574  14.3832  61.8611   H         1 RES1   0.0000
    55 H21     33.4123  13.2551  63.5622   H         1 RES1   0.0000
    56 H22     32.1874  14.4245  64.1048   H         1 RES1   0.0000
    57 H23     30.7621  12.6417  62.8358   H         1 RES1   0.0000
    58 H24     32.0842  12.9667  65.8582   H         1 RES1   0.0000
    59 H25     30.9119  12.1756  64.7801   H         1 RES1   0.0000
    60 H26     26.4898   2.3141  65.4904   H         1 RES1   0.0000
    61 H27     26.8149   8.8354  63.6173   H         1 RES1   0.0000
    62 H28     25.1706   8.8699  62.9410   H         1 RES1   0.0000
    63 H29     24.4230   2.4199  63.9689   H         1 RES1   0.0000
    64 H30     27.8161   9.1001  61.5246   H         1 RES1   0.0000
    65 H31     25.4965   7.7674  60.5519   H         1 RES1   0.0000
    66 H32     27.1213   7.9237  59.8462   H         1 RES1   0.0000
@<TRIPOS>BOND
     1     1     2    2
     2     2     3    2
     3     2     4    1
     4     2    11    1
     5     4     5    1
     6     5     6    1
     7     6     7    1
     8     7     8    1
     9     8     9    1
    10     9    10    1
    11    11    12    2
    12    11    16    1
    13    12    13    1
    14    13    14    2
    15    14    15    1
    16    14    17    1
    17    15    16    2
    18    17    18    1
    19    18    19    2
    20    18    26    1
    21    19    20    1
    22    20    21    2
    23    20    27    1
    24    21    22    1
    25    21    25    1
    26    22    23    2
    27    23    24    1
    28    24    25    1
    29    25    26    2
    30    27    28    1
    31    28    29    1
    32    29    30    1
    33    29    34    1
    34    30    31    1
    35    31    32    1
    36    32    33    1
    37    33    34    1
    38    17    35    1
    39    16    36    1
    40    15    37    1
    41    31    38    1
    42    31    39    1
    43    33    40    1
    44    33    41    1
    45    13    42    1
    46    34    43    1
    47    34    44    1
    48    12    45    1
    49    10    46    1
    50    32    47    1
    51    32    48    1
    52     8    49    1
    53     8    50    1
    54     9    51    1
    55     9    52    1
    56     7    53    1
    57     7    54    1
    58     5    55    1
    59     5    56    1
    60     6    57    1
    61     4    58    1
    62     4    59    1
    63    24    60    1
    64    28    61    1
    65    28    62    1
    66    23    63    1
    67    29    64    1
    68    30    65    1
    69    30    66    1
@<TRIPOS>SUBSTRUCTURE
     1 RES1        1 GROUP             0 ****  ****    0  
@<TRIPOS>MOLECULE
2R3H:A:SCE501
    31    33     1     0     0
SMALL
NO_CHARGES
****
Generated from the CSD

@<TRIPOS>ATOM
     1 C1      26.5271   4.6039  64.2273   C.2       1 RES1   0.0000
     2 N2      27.1931   5.8289  64.0603   N.pl3     1 RES1   0.0000
     3 C3      28.4281   5.7419  64.7823   C.2       1 RES1   0.0000
     4 N4      28.5391   4.5239  65.4213   N.2       1 RES1   0.0000
     5 C5      27.4001   3.7979  65.0353   C.2       1 RES1   0.0000
     6 C6      26.8841   6.9809  63.3563   C.2       1 RES1   0.0000
     7 C7      27.7911   8.0388  63.3883   C.2       1 RES1   0.0000
     8 N8      28.9871   8.0368  64.0553   N.2       1 RES1   0.0000
     9 C9      29.3291   6.9169  64.7463   C.2       1 RES1   0.0000
    10 N10     30.5121   6.8279  65.4513   N.pl3     1 RES1   0.0000
    11 C11     31.5251   7.8658  65.3173   C.3       1 RES1   0.0000
    12 C12     31.5671   8.8168  66.4873   C.2       1 RES1   0.0000
    13 C13     31.3831  10.1948  66.2863   C.2       1 RES1   0.0000
    14 C14     31.4271  11.0498  67.4053   C.2       1 RES1   0.0000
    15 N15     31.6491  10.6128  68.6713   N.2       1 RES1   0.0000
    16 C16     31.8231   9.2878  68.8423   C.2       1 RES1   0.0000
    17 C17     31.7861   8.3568  67.7863   C.2       1 RES1   0.0000
    18 C18     25.2171   4.2739  63.6453   C.3       1 RES1   0.0000
    19 H1      31.9262   7.2945  67.9805   H         1 RES1   0.0000
    20 H2      32.0018   8.9171  69.8505   H         1 RES1   0.0000
    21 H3      25.2751   4.3399  62.5599   H         1 RES1   0.0000
    22 H4      24.9367   3.2617  63.9330   H         1 RES1   0.0000
    23 H5      24.4697   4.9758  64.0122   H         1 RES1   0.0000
    24 H6      31.2752  12.1164  67.2464   H         1 RES1   0.0000
    25 H7      31.3157   8.4380  64.4147   H         1 RES1   0.0000
    26 H8      32.4992   7.3876  65.2261   H         1 RES1   0.0000
    27 H9      31.2103  10.5934  65.2877   H         1 RES1   0.0000
    28 H10     27.5271   8.9406  62.8379   H         1 RES1   0.0000
    29 H11     25.9559   7.0582  62.7920   H         1 RES1   0.0000
    30 H12     27.2049   2.7627  65.3115   H         1 RES1   0.0000
    31 H13     30.6768   6.0366  66.0652   H         1 RES1   0.0000
@<TRIPOS>BOND
     1     1     2    1
     2     1     5    2
     3     1    18    1
     4     2     3    1
     5     2     6    1
     6     3     4    2
     7     3     9    1
     8     4     5    1
     9     6     7    2
    10     7     8    1
    11     8     9    2
    12     9    10    1
    13    10    11    1
    14    11    12    1
    15    12    13    2
    16    12    17    1
    17    13    14    1
    18    14    15    2
    19    15    16    1
    20    16    17    2
    21    17    19    1
    22    16    20    1
    23    18    21    1
    24    18    22    1
    25    18    23    1
    26    14    24    1
    27    11    25    1
    28    11    26    1
    29    13    27    1
    30     7    28    1
    31     6    29    1
    32     5    30    1
    33    10    31    1
@<TRIPOS>SUBSTRUCTURE
     1 RES1        1 GROUP             0 ****  ****    0  
@<TRIPOS>MOLECULE
5D1J:A:56H4000
    49    51     1     0     0
SMALL
NO_CHARGES
****
Generated from the CSD

@<TRIPOS>ATOM
     1 C1      29.7856   7.4028  65.1649   C.2       1 RES1   0.0000
     2 C2      28.4905   5.3498  65.1289   C.2       1 RES1   0.0000
     3 C3      31.1116   7.9748  65.5629   C.3       1 RES1   0.0000
     4 C4      30.9886   8.7237  66.9018   C.3       1 RES1   0.0000
     5 C5      31.6426   8.9177  64.4679   C.3       1 RES1   0.0000
     6 C6      32.2856   9.4327  67.2418   C.3       1 RES1   0.0000
     7 C7      32.9336   9.5837  64.9069   C.3       1 RES1   0.0000
     8 C8      25.8695   9.3547  62.2890   C.3       1 RES1   0.0000
     9 C9      25.1615   9.6117  59.9201   C.3       1 RES1   0.0000
    10 C10     24.2114   5.3788  61.6280   C.2       1 RES1   0.0000
    11 O11     25.2225   6.2938  61.6160   O.3       1 RES1   0.0000
    12 N12     23.0474   5.9018  61.2030   N.2       1 RES1   0.0000
    13 C13     24.5835   4.0489  62.1360   C.3       1 RES1   0.0000
    14 C14     24.6825   7.4678  61.1420   C.2       1 RES1   0.0000
    15 C15     23.3374   7.2128  60.9020   C.2       1 RES1   0.0000
    16 S16     24.6965   4.2049  63.9249   S.3       1 RES1   0.0000
    17 C17     25.6705   8.6167  60.9640   C.3       1 RES1   0.0000
    18 C18     26.3835   4.4189  64.3579   C.2       1 RES1   0.0000
    19 C19     27.0195   8.0728  60.4800   C.3       1 RES1   0.0000
    20 S20     27.0875   6.0138  64.3469   S.3       1 RES1   0.0000
    21 C21     27.2635   3.5469  64.8979   C.2       1 RES1   0.0000
    22 N22     28.4525   4.0639  65.3569   N.2       1 RES1   0.0000
    23 N23     29.6055   6.0858  65.4649   N.am      1 RES1   0.0000
    24 O24     28.9355   8.0708  64.5829   O.2       1 RES1   0.0000
    25 N25     32.6506  10.3427  66.1449   N.3       1 RES1   0.0000
    26 H1      33.4775  10.8685  66.4096   H         1 RES1   0.0000
    27 H2      30.3464   5.6130  65.9726   H         1 RES1   0.0000
    28 H3      27.0412   2.4830  64.9665   H         1 RES1   0.0000
    29 H4      27.4217   7.3859  61.2232   H         1 RES1   0.0000
    30 H5      26.8814   7.5467  59.5366   H         1 RES1   0.0000
    31 H6      27.7137   8.8994  60.3364   H         1 RES1   0.0000
    32 H7      22.6194   7.9425  60.5307   H         1 RES1   0.0000
    33 H8      33.0759   8.6965  67.3806   H         1 RES1   0.0000
    34 H9      32.1567  10.0043  68.1597   H         1 RES1   0.0000
    35 H10     30.8966   9.6847  64.2652   H         1 RES1   0.0000
    36 H11     31.8280   8.3431  63.5616   H         1 RES1   0.0000
    37 H12     25.5434   3.7425  61.7229   H         1 RES1   0.0000
    38 H13     23.8229   3.3168  61.8687   H         1 RES1   0.0000
    39 H14     25.8915  10.4097  59.7930   H         1 RES1   0.0000
    40 H15     25.0154   9.0988  58.9706   H         1 RES1   0.0000
    41 H16     24.2152  10.0352  60.2533   H         1 RES1   0.0000
    42 H17     24.9208   9.7790  62.6142   H         1 RES1   0.0000
    43 H18     26.2323   8.6569  63.0422   H         1 RES1   0.0000
    44 H19     26.5971  10.1536  62.1538   H         1 RES1   0.0000
    45 H20     33.2848  10.2603  64.1293   H         1 RES1   0.0000
    46 H21     33.6934   8.8280  65.1008   H         1 RES1   0.0000
    47 H22     31.8186   7.1560  65.6877   H         1 RES1   0.0000
    48 H23     30.7543   8.0100  67.6902   H         1 RES1   0.0000
    49 H24     30.1884   9.4586  66.8279   H         1 RES1   0.0000
@<TRIPOS>BOND
     1     1     3    1
     2     1    23   am
     3     1    24    2
     4     2    20    1
     5     2    22    2
     6     2    23    1
     7     3     4    1
     8     3     5    1
     9     4     6    1
    10     5     7    1
    11     6    25    1
    12     7    25    1
    13     8    17    1
    14     9    17    1
    15    10    11    1
    16    10    12    2
    17    10    13    1
    18    11    14    1
    19    12    15    1
    20    13    16    1
    21    14    15    2
    22    14    17    1
    23    16    18    1
    24    17    19    1
    25    18    20    1
    26    18    21    2
    27    21    22    1
    28    25    26    1
    29    23    27    1
    30    21    28    1
    31    19    29    1
    32    19    30    1
    33    19    31    1
    34    15    32    1
    35     6    33    1
    36     6    34    1
    37     5    35    1
    38     5    36    1
    39    13    37    1
    40    13    38    1
    41     9    39    1
    42     9    40    1
    43     9    41    1
    44     8    42    1
    45     8    43    1
    46     8    44    1
    47     7    45    1
    48     7    46    1
    49     3    47    1
    50     4    48    1
    51     4    49    1
@<TRIPOS>SUBSTRUCTURE
     1 RES1        1 GROUP             0 ****  ****    0  
@<TRIPOS>MOLECULE
5IEX:A:6AF1001
    48    50     1     0     0
SMALL
NO_CHARGES
****
Generated from the CSD

@<TRIPOS>ATOM
     1 C1      28.9197   5.5091  65.1638   C.2       1 RES1   0.0000
     2 C2      27.5097   3.6760  64.9288   C.2       1 RES1   0.0000
     3 C3      31.7588   7.3521  66.3278   C.2       1 RES1   0.0000
     4 C4      31.1458   9.1661  64.3338   C.2       1 RES1   0.0000
     5 C5      32.9838  13.6351  64.6828   C.3       1 RES1   0.0000
     6 C6      26.7777   7.6501  62.4057   C.3       1 RES1   0.0000
     7 C7      26.5287   8.8071  63.3707   C.3       1 RES1   0.0000
     8 C8      32.1258  13.1631  65.8858   C.3       1 RES1   0.0000
     9 C9      32.2408  12.2831  64.6298   C.3       1 RES1   0.0000
    10 S10     33.2218  10.8041  64.9938   S.2       1 RES1   0.0000
    11 N11     34.2239  10.5251  63.7578   N.pl3     1 RES1   0.0000
    12 O12     34.0369  11.0911  66.2178   O.2       1 RES1   0.0000
    13 C13     32.2168   9.3971  65.1928   C.2       1 RES1   0.0000
    14 C14     30.3698   8.0091  64.4718   C.2       1 RES1   0.0000
    15 C15     32.5148   8.5061  66.2048   C.2       1 RES1   0.0000
    16 C16     30.6848   7.0851  65.4848   C.2       1 RES1   0.0000
    17 N17     30.0208   5.9551  65.7348   N.pl3     1 RES1   0.0000
    18 N18     28.1527   6.2801  64.4008   N.2       1 RES1   0.0000
    19 N19     28.5837   4.2350  65.4038   N.2       1 RES1   0.0000
    20 C20     26.7107   4.4690  64.1388   C.2       1 RES1   0.0000
    21 Br21    25.1466   3.8000  63.2927   Br        1 RES1   0.0000
    22 C22     27.0417   5.7721  63.8608   C.2       1 RES1   0.0000
    23 O23     26.2077   6.4661  63.0187   O.3       1 RES1   0.0000
    24 C24     26.2607   7.8361  60.9187   C.3       1 RES1   0.0000
    25 C25     26.5887   6.6211  60.0467   C.3       1 RES1   0.0000
    26 O26     24.8716   8.3011  61.2137   O.3       1 RES1   0.0000
    27 H1      24.9089   9.1397  61.7441   H         1 RES1   0.0000
    28 H2      26.1139   5.7350  60.4654   H         1 RES1   0.0000
    29 H3      26.2179   6.7885  59.0366   H         1 RES1   0.0000
    30 H4      27.6675   6.4756  60.0179   H         1 RES1   0.0000
    31 H5      26.7983   8.6847  60.4982   H         1 RES1   0.0000
    32 H6      30.4146   5.3622  66.4584   H         1 RES1   0.0000
    33 H7      33.3320   8.7077  66.8958   H         1 RES1   0.0000
    34 H8      29.5309   7.8262  63.8019   H         1 RES1   0.0000
    35 H9      34.8555   9.7310  63.7858   H         1 RES1   0.0000
    36 H10     34.2220  11.1439  62.9532   H         1 RES1   0.0000
    37 H11     31.3743  12.1880  63.9770   H         1 RES1   0.0000
    38 H12     31.1868  13.6648  66.1152   H         1 RES1   0.0000
    39 H13     32.6090  12.8559  66.8121   H         1 RES1   0.0000
    40 H14     27.0101   8.5946  64.3241   H         1 RES1   0.0000
    41 H15     26.9411   9.7240  62.9522   H         1 RES1   0.0000
    42 H16     25.4573   8.9278  63.5239   H         1 RES1   0.0000
    43 H17     27.8550   7.4994  62.3553   H         1 RES1   0.0000
    44 H18     34.0696  13.6582  64.7628   H         1 RES1   0.0000
    45 H19     32.6475  14.4671  64.0658   H         1 RES1   0.0000
    46 H20     30.9111   9.8874  63.5524   H         1 RES1   0.0000
    47 H21     32.0122   6.6338  67.1061   H         1 RES1   0.0000
    48 H22     27.2574   2.6388  65.1444   H         1 RES1   0.0000
@<TRIPOS>BOND
     1     1    17    1
     2     1    18    2
     3     1    19    1
     4     2    19    2
     5     2    20    1
     6     3    15    2
     7     3    16    1
     8     4    13    2
     9     4    14    1
    10     5     8    1
    11     5     9    1
    12     6     7    1
    13     6    23    1
    14     6    24    1
    15     8     9    1
    16     9    10    1
    17    10    11    1
    18    10    12    2
    19    10    13    1
    20    13    15    1
    21    14    16    2
    22    16    17    1
    23    18    22    1
    24    20    21    1
    25    20    22    2
    26    22    23    1
    27    24    25    1
    28    24    26    1
    29    26    27    1
    30    25    28    1
    31    25    29    1
    32    25    30    1
    33    24    31    1
    34    17    32    1
    35    15    33    1
    36    14    34    1
    37    11    35    1
    38    11    36    1
    39     9    37    1
    40     8    38    1
    41     8    39    1
    42     7    40    1
    43     7    41    1
    44     7    42    1
    45     6    43    1
    46     5    44    1
    47     5    45    1
    48     4    46    1
    49     3    47    1
    50     2    48    1
@<TRIPOS>SUBSTRUCTURE
     1 RES1        1 GROUP             0 ****  ****    0  
@<TRIPOS>MOLECULE
5IEY:A:6AE1001
    42    43     1     0     0
SMALL
NO_CHARGES
****
Generated from the CSD

@<TRIPOS>ATOM
     1 C1      32.1875   9.2969  65.0921   C.2       1 RES1   0.0000
     2 C2      31.0475   9.0589  64.3281   C.2       1 RES1   0.0000
     3 C3      30.2025   7.9909  64.5461   C.2       1 RES1   0.0000
     4 C4      30.5375   7.1089  65.5702   C.2       1 RES1   0.0000
     5 C5      32.5405   8.4429  66.1202   C.2       1 RES1   0.0000
     6 C6      26.5564   4.3519  64.0671   C.2       1 RES1   0.0000
     7 C7      26.1644   8.0479  61.0581   C.3       1 RES1   0.0000
     8 C8      26.4194   6.8429  60.3071   C.3       1 RES1   0.0000
     9 O9      24.7114   8.2049  61.2671   O.3       1 RES1   0.0000
    10 C10     26.8104   7.7529  62.4451   C.3       1 RES1   0.0000
    11 C11     26.4644   8.9659  63.3061   C.3       1 RES1   0.0000
    12 N12     26.2254   6.4979  62.9791   N.pl3     1 RES1   0.0000
    13 C13     26.9374   5.6869  63.8001   C.2       1 RES1   0.0000
    14 N14     28.0124   6.1749  64.4021   N.2       1 RES1   0.0000
    15 C15     27.3504   3.6010  64.9411   C.2       1 RES1   0.0000
    16 N16     28.4724   4.1559  65.4962   N.2       1 RES1   0.0000
    17 C17     28.8114   5.4329  65.2021   C.2       1 RES1   0.0000
    18 N18     29.8865   5.9729  65.8082   N.pl3     1 RES1   0.0000
    19 C19     31.7205   7.3349  66.2912   C.2       1 RES1   0.0000
    20 S20     33.2305  10.6679  64.7961   S.o2      1 RES1   0.0000
    21 O21     34.3165  10.1019  64.0001   O.2       1 RES1   0.0000
    22 O22     33.7295  11.1779  66.1432   O.2       1 RES1   0.0000
    23 N23     32.4855  11.8819  64.0461   N.pl3     1 RES1   0.0000
    24 H1      27.0758   2.5746  65.1800   H         1 RES1   0.0000
    25 H2      32.9959  12.7305  63.8234   H         1 RES1   0.0000
    26 H3      31.5053  11.7988  63.7959   H         1 RES1   0.0000
    27 H4      33.4058   8.6270  66.7552   H         1 RES1   0.0000
    28 H5      32.0144   6.5935  67.0327   H         1 RES1   0.0000
    29 H6      30.2623   5.4219  66.5733   H         1 RES1   0.0000
    30 H7      25.3821   9.0628  63.3785   H         1 RES1   0.0000
    31 H8      26.8847   8.8357  64.3023   H         1 RES1   0.0000
    32 H9      26.8797   9.8641  62.8515   H         1 RES1   0.0000
    33 H10     25.6697   3.9200  63.6055   H         1 RES1   0.0000
    34 H11     26.6038   8.9237  60.5830   H         1 RES1   0.0000
    35 H12     25.2764   6.2423  62.7255   H         1 RES1   0.0000
    36 H13     24.3630   7.4231  61.7705   H         1 RES1   0.0000
    37 H14     27.8905   7.6548  62.3463   H         1 RES1   0.0000
    38 H15     25.9201   6.9046  59.3413   H         1 RES1   0.0000
    39 H16     27.4918   6.7302  60.1548   H         1 RES1   0.0000
    40 H17     26.0388   5.9843  60.8583   H         1 RES1   0.0000
    41 H18     29.3089   7.8433  63.9414   H         1 RES1   0.0000
    42 H19     30.8120   9.7494  63.5196   H         1 RES1   0.0000
@<TRIPOS>BOND
     1     1     2    2
     2     1     5    1
     3     1    20    1
     4     2     3    1
     5     3     4    2
     6     4    18    1
     7     4    19    1
     8     5    19    2
     9     6    13    2
    10     6    15    1
    11     7     8    1
    12     7     9    1
    13     7    10    1
    14    10    11    1
    15    10    12    1
    16    12    13    1
    17    13    14    1
    18    14    17    2
    19    15    16    2
    20    16    17    1
    21    17    18    1
    22    20    21    2
    23    20    22    2
    24    20    23    1
    25    15    24    1
    26    23    25    1
    27    23    26    1
    28     5    27    1
    29    19    28    1
    30    18    29    1
    31    11    30    1
    32    11    31    1
    33    11    32    1
    34     6    33    1
    35     7    34    1
    36    12    35    1
    37     9    36    1
    38    10    37    1
    39     8    38    1
    40     8    39    1
    41     8    40    1
    42     3    41    1
    43     2    42    1
@<TRIPOS>SUBSTRUCTURE
     1 RES1        1 GROUP             0 ****  ****    0  
@<TRIPOS>MOLECULE
2B52:A:D42299
    54    58     1     0     0
SMALL
NO_CHARGES
****
Generated from the CSD

@<TRIPOS>ATOM
     1 C1      25.4008  10.9180  58.0613   C.3       1 RES1   0.0000
     2 C2      25.0878   9.6040  58.7593   C.3       1 RES1   0.0000
     3 N3      24.9708   9.7760  60.2263   N.3       1 RES1   0.0000
     4 C4      26.1748  10.3780  60.8393   C.3       1 RES1   0.0000
     5 C5      26.5748  11.6830  60.1413   C.3       1 RES1   0.0000
     6 N6      26.5928  11.5670  58.6563   N.3       1 RES1   0.0000
     7 C7      27.0558  12.7060  57.8613   C.3       1 RES1   0.0000
     8 N8      23.9958   8.8330  60.8893   N.am      1 RES1   0.0000
     9 C9      24.2378   7.5420  61.1413   C.2       1 RES1   0.0000
    10 N10     25.2298   7.2210  61.9734   N.am      1 RES1   0.0000
    11 C11     25.4678   5.9570  62.5704   C.2       1 RES1   0.0000
    12 C12     24.6998   4.7190  62.3064   C.2       1 RES1   0.0000
    13 C13     25.0878   3.5010  63.0424   C.2       1 RES1   0.0000
    14 C14     26.1998   3.5260  64.0134   C.2       1 RES1   0.0000
    15 C15     26.9368   4.7700  64.2514   C.2       1 RES1   0.0000
    16 C16     26.5888   5.9980  63.5284   C.2       1 RES1   0.0000
    17 C17     28.0988   5.1180  65.0424   C.2       1 RES1   0.0000
    18 C18     28.4518   6.5010  64.8014   C.2       1 RES1   0.0000
    19 C19     27.5098   7.0780  63.8514   C.2       1 RES1   0.0000
    20 N20     28.9988   4.4550  65.9044   N.pl3     1 RES1   0.0000
    21 N21     29.9738   5.5790  66.1975   N.2       1 RES1   0.0000
    22 C22     29.6708   6.7890  65.5364   C.2       1 RES1   0.0000
    23 C23     30.6188   7.8960  65.5534   C.2       1 RES1   0.0000
    24 S24     30.7788   9.0430  64.1554   S.3       1 RES1   0.0000
    25 C25     32.1348   9.9200  64.9984   C.2       1 RES1   0.0000
    26 N26     32.4298   9.3530  66.2665   N.2       1 RES1   0.0000
    27 C27     31.6068   8.2420  66.5745   C.2       1 RES1   0.0000
    28 C28     31.8498   7.5400  67.8765   C.3       1 RES1   0.0000
    29 C29     32.8798  11.1120  64.4134   C.3       1 RES1   0.0000
    30 O30     23.5458   6.6610  60.6183   O.2       1 RES1   0.0000
    31 O31     27.4998   8.1910  63.3224   O.2       1 RES1   0.0000
    32 H1      23.0922   9.2054  61.1633   H         1 RES1   0.0000
    33 H2      26.2627  13.4494  57.7960   H         1 RES1   0.0000
    34 H3      27.9301  13.1487  58.3362   H         1 RES1   0.0000
    35 H4      27.3190  12.3670  56.8604   H         1 RES1   0.0000
    36 H5      27.5705  11.9663  60.4793   H         1 RES1   0.0000
    37 H6      25.8626  12.4581  60.4202   H         1 RES1   0.0000
    38 H7      26.9997   9.6709  60.7649   H         1 RES1   0.0000
    39 H8      25.9696  10.5874  61.8881   H         1 RES1   0.0000
    40 H9      25.8868   8.8943  58.5500   H         1 RES1   0.0000
    41 H10     24.1466   9.2151  58.3736   H         1 RES1   0.0000
    42 H11     24.5460  11.5855  58.1597   H         1 RES1   0.0000
    43 H12     25.5905  10.7242  57.0066   H         1 RES1   0.0000
    44 H13     32.1310   6.5056  67.6843   H         1 RES1   0.0000
    45 H14     32.6535   8.0407  68.4144   H         1 RES1   0.0000
    46 H15     30.9415   7.5637  68.4767   H         1 RES1   0.0000
    47 H16     32.1772  11.9226  64.2256   H         1 RES1   0.0000
    48 H17     33.6399  11.4464  65.1179   H         1 RES1   0.0000
    49 H18     33.3552  10.8196  63.4783   H         1 RES1   0.0000
    50 H19     26.4723   2.6200  64.5527   H         1 RES1   0.0000
    51 H20     25.8848   7.9613  62.2041   H         1 RES1   0.0000
    52 H21     24.5474   2.5719  62.8674   H         1 RES1   0.0000
    53 H22     28.9946   3.4954  66.2352   H         1 RES1   0.0000
    54 H23     23.8768   4.7080  61.5934   H         1 RES1   0.0000
@<TRIPOS>BOND
     1     1     2    1
     2     1     6    1
     3     2     3    1
     4     3     4    1
     5     3     8    1
     6     4     5    1
     7     5     6    1
     8     6     7    1
     9     8     9   am
    10     9    10   am
    11     9    30    2
    12    10    11    1
    13    11    12    2
    14    11    16    1
    15    12    13    1
    16    13    14    2
    17    14    15    1
    18    15    16    2
    19    15    17    1
    20    16    19    1
    21    17    18    2
    22    17    20    1
    23    18    19    1
    24    18    22    1
    25    19    31    2
    26    20    21    1
    27    21    22    2
    28    22    23    1
    29    23    24    1
    30    23    27    2
    31    24    25    1
    32    25    26    2
    33    25    29    1
    34    26    27    1
    35    27    28    1
    36     8    32    1
    37     7    33    1
    38     7    34    1
    39     7    35    1
    40     5    36    1
    41     5    37    1
    42     4    38    1
    43     4    39    1
    44     2    40    1
    45     2    41    1
    46     1    42    1
    47     1    43    1
    48    28    44    1
    49    28    45    1
    50    28    46    1
    51    29    47    1
    52    29    48    1
    53    29    49    1
    54    14    50    1
    55    10    51    1
    56    13    52    1
    57    20    53    1
    58    12    54    1
@<TRIPOS>SUBSTRUCTURE
     1 RES1        1 GROUP             0 ****  ****    0  
@<TRIPOS>MOLECULE
3IGG:A:EFQ999
    41    43     1     0     0
SMALL
NO_CHARGES
****
Generated from the CSD

@<TRIPOS>ATOM
     1 C1      25.3319   4.3389  63.8282   C.3       1 RES1   0.0000
     2 N2      26.6269   4.6279  64.3692   N.pl3     1 RES1   0.0000
     3 O3      23.6289   5.8719  61.3372   O.3       1 RES1   0.0000
     4 C4      27.4109   5.7249  64.3192   C.2       1 RES1   0.0000
     5 N5      28.4669   4.1179  65.4702   N.2       1 RES1   0.0000
     6 O6      29.2299   7.9219  63.9042   O.2       1 RES1   0.0000
     7 C7      27.2849   3.6760  65.0542   C.2       1 RES1   0.0000
     8 N8      29.7889   6.1899  65.3002   N.am      1 RES1   0.0000
     9 O9      31.2949  11.6499  69.0881   O.3       1 RES1   0.0000
    10 C10     24.3059   5.4979  63.7522   C.3       1 RES1   0.0000
    11 C11     25.3249   4.3709  62.2512   C.3       1 RES1   0.0000
    12 C12     28.5849   5.3939  65.0292   C.2       1 RES1   0.0000
    13 C13     23.8699   4.9289  62.3822   C.3       1 RES1   0.0000
    14 C14     30.0249   7.3379  64.6352   C.2       1 RES1   0.0000
    15 C15     31.4309   7.8359  64.8692   C.3       1 RES1   0.0000
    16 C16     31.3969   8.8079  66.0052   C.2       1 RES1   0.0000
    17 C17     31.1909  10.1519  65.7642   C.2       1 RES1   0.0000
    18 C18     31.5789   8.3709  67.3211   C.2       1 RES1   0.0000
    19 C19     31.1789  11.0859  66.7821   C.2       1 RES1   0.0000
    20 C20     31.5679   9.3129  68.3361   C.2       1 RES1   0.0000
    21 C21     31.3359  10.6639  68.0911   C.2       1 RES1   0.0000
    22 C22     32.4719  11.5959  69.8991   C.3       1 RES1   0.0000
    23 H1      31.8017   8.3295  63.9721   H         1 RES1   0.0000
    24 H2      32.0820   6.9994  65.1186   H         1 RES1   0.0000
    25 H3      31.7466   8.9864  69.3595   H         1 RES1   0.0000
    26 H4      33.3498  11.7607  69.2762   H         1 RES1   0.0000
    27 H5      32.4204  12.3679  70.6654   H         1 RES1   0.0000
    28 H6      32.5416  10.6180  70.3731   H         1 RES1   0.0000
    29 H7      30.4528   5.8708  65.9985   H         1 RES1   0.0000
    30 H8      26.8998   2.6750  65.2431   H         1 RES1   0.0000
    31 H9      27.1843   6.6716  63.8311   H         1 RES1   0.0000
    32 H10     24.4579   6.3891  61.1604   H         1 RES1   0.0000
    33 H11     24.9025   3.4232  64.2319   H         1 RES1   0.0000
    34 H12     25.4029   3.3968  61.7706   H         1 RES1   0.0000
    35 H13     26.0420   5.0560  61.8014   H         1 RES1   0.0000
    36 H14     24.7465   6.4930  63.7117   H         1 RES1   0.0000
    37 H15     23.5348   5.4734  64.5207   H         1 RES1   0.0000
    38 H16     31.7258   7.3148  67.5424   H         1 RES1   0.0000
    39 H17     31.0330  10.4860  64.7398   H         1 RES1   0.0000
    40 H18     31.0473  12.1432  66.5570   H         1 RES1   0.0000
    41 H19     23.1094   4.1527  62.4538   H         1 RES1   0.0000
@<TRIPOS>BOND
     1     1     2    1
     2     1    10    1
     3     1    11    1
     4     2     4    1
     5     2     7    1
     6     3    13    1
     7     4    12    2
     8     5     7    2
     9     5    12    1
    10     6    14    2
    11     8    12    1
    12     8    14   am
    13     9    21    1
    14     9    22    1
    15    10    13    1
    16    11    13    1
    17    14    15    1
    18    15    16    1
    19    16    17    2
    20    16    18    1
    21    17    19    1
    22    18    20    2
    23    19    21    2
    24    20    21    1
    25    15    23    1
    26    15    24    1
    27    20    25    1
    28    22    26    1
    29    22    27    1
    30    22    28    1
    31     8    29    1
    32     7    30    1
    33     4    31    1
    34     3    32    1
    35     1    33    1
    36    11    34    1
    37    11    35    1
    38    10    36    1
    39    10    37    1
    40    18    38    1
    41    17    39    1
    42    19    40    1
    43    13    41    1
@<TRIPOS>SUBSTRUCTURE
     1 RES1        1 GROUP             0 ****  ****    0  
@<TRIPOS>MOLECULE
4BCK:A:T3E1298
   168   176     1     0     0
SMALL
NO_CHARGES
****
Generated from the CSD

@<TRIPOS>ATOM
     1 C1      22.5159   9.8599  60.6089   C.3       1 RES1   0.0000
     2 N2      23.8889   9.6529  61.0129   N.pl3     1 RES1   0.0000
     3 C3      24.2429   8.4919  61.7910   C.2       1 RES1   0.0000
     4 N4      23.3509   7.5369  62.2830   N.2       1 RES1   0.0000
     5 C5      24.0509   6.4739  63.0450   C.2       1 RES1   0.0000
     6 C6      23.3469   5.3319  63.6801   C.3       1 RES1   0.0000
     7 C7      25.4629   6.7219  63.0580   C.2       1 RES1   0.0000
     8 C8      26.5709   5.9229  63.7201   C.2       1 RES1   0.0000
     9 N9      27.4579   6.6229  64.4791   N.2       1 RES1   0.0000
    10 C10     28.5129   6.0079  65.1032   C.2       1 RES1   0.0000
    11 N11     29.4289   6.7999  65.9102   N.pl3     1 RES1   0.0000
    12 C12     30.1969   7.8769  65.2982   C.2       1 RES1   0.0000
    13 C13     29.5899   8.7549  64.3951   C.2       1 RES1   0.0000
    14 C14     30.3289   9.7979  63.8141   C.2       1 RES1   0.0000
    15 S15     29.5559  10.9059  62.6590   S.o2      1 RES1   0.0000
    16 O16     28.1269  10.9279  62.8630   O.2       1 RES1   0.0000
    17 N17     29.8979  10.3239  61.1609   N.pl3     1 RES1   0.0000
    18 O18     30.0829  12.2349  62.8170   O.2       1 RES1   0.0000
    19 C19     31.6639   9.9679  64.1451   C.2       1 RES1   0.0000
    20 C20     32.2699   9.1009  65.0542   C.2       1 RES1   0.0000
    21 C21     31.5339   8.0569  65.6292   C.2       1 RES1   0.0000
    22 N22     28.6689   4.6599  64.9832   N.2       1 RES1   0.0000
    23 C23     27.7919   3.9440  64.2321   C.2       1 RES1   0.0000
    24 C24     26.7419   4.5619  63.5901   C.2       1 RES1   0.0000
    25 C25     25.8119   3.7160  62.7740   C.1       1 RES1   0.0000
    26 N26     25.1119   3.0550  62.1550   N.1       1 RES1   0.0000
    27 S27     25.7519   8.0789  62.2460   S.3       1 RES1   0.0000
    28 C28     26.1119   8.9789  58.5298   C.3       1 RES1   0.0000
    29 N29     24.9289   8.2629  58.9548   N.pl3     1 RES1   0.0000
    30 C30     24.9899   7.4699  60.1429   C.2       1 RES1   0.0000
    31 N31     23.8919   6.8699  60.7779   N.2       1 RES1   0.0000
    32 C32     24.3249   6.1369  61.9960   C.2       1 RES1   0.0000
    33 C33     23.3559   5.4179  62.8710   C.3       1 RES1   0.0000
    34 C34     25.7499   6.2599  62.1820   C.2       1 RES1   0.0000
    35 C35     26.6329   5.6589  63.2751   C.2       1 RES1   0.0000
    36 N36     27.5759   6.4169  63.9031   N.2       1 RES1   0.0000
    37 C37     28.4159   5.8859  64.8532   C.2       1 RES1   0.0000
    38 N38     29.3889   6.7229  65.5412   N.pl3     1 RES1   0.0000
    39 C39     30.1089   7.8469  64.9332   C.2       1 RES1   0.0000
    40 C40     29.5089   8.7629  64.0481   C.2       1 RES1   0.0000
    41 C41     30.2509   9.8599  63.5231   C.2       1 RES1   0.0000
    42 S42     29.5289  11.0219  62.3800   S.o2      1 RES1   0.0000
    43 O43     28.0929  11.1009  62.5480   O.2       1 RES1   0.0000
    44 N44     29.9069  10.5129  60.8629   N.pl3     1 RES1   0.0000
    45 O45     30.0719  12.3249  62.6530   O.2       1 RES1   0.0000
    46 C46     31.5719  10.0529  63.9071   C.2       1 RES1   0.0000
    47 C47     32.1639   9.1559  64.8082   C.2       1 RES1   0.0000
    48 C48     31.4309   8.0579  65.3132   C.2       1 RES1   0.0000
    49 N49     28.3119   4.5619  65.1962   N.2       1 RES1   0.0000
    50 C50     27.3949   3.7770  64.5641   C.2       1 RES1   0.0000
    51 C51     26.5629   4.3080  63.5961   C.2       1 RES1   0.0000
    52 C52     25.5689   3.4400  62.8880   C.1       1 RES1   0.0000
    53 N53     24.7979   2.8050  62.3210   N.1       1 RES1   0.0000
    54 S54     26.3579   7.1759  60.9959   S.3       1 RES1   0.0000
    55 C55     26.1399   8.9309  58.5448   C.3       1 RES1   0.0000
    56 N56     24.9519   8.3049  59.0768   N.pl3     1 RES1   0.0000
    57 C57     25.0349   7.5259  60.2849   C.2       1 RES1   0.0000
    58 N58     23.9499   7.0089  60.9999   N.2       1 RES1   0.0000
    59 C59     24.4009   6.2609  62.1970   C.2       1 RES1   0.0000
    60 C60     23.4829   5.5939  63.1541   C.3       1 RES1   0.0000
    61 C61     25.8289   6.2829  62.2850   C.2       1 RES1   0.0000
    62 C62     26.6869   5.6349  63.3541   C.2       1 RES1   0.0000
    63 N63     27.5079   6.4009  64.1311   N.2       1 RES1   0.0000
    64 C64     28.3089   5.8119  65.0822   C.2       1 RES1   0.0000
    65 N65     29.1799   6.5979  65.9452   N.pl3     1 RES1   0.0000
    66 C66     29.9549   7.7389  65.4762   C.2       1 RES1   0.0000
    67 C67     30.8249   8.3379  66.3873   C.2       1 RES1   0.0000
    68 C68     31.5989   9.4449  66.0192   C.2       1 RES1   0.0000
    69 S69     32.7039  10.1779  67.2043   S.o2      1 RES1   0.0000
    70 O70     33.9929  10.4379  66.6083   O.2       1 RES1   0.0000
    71 N71     32.8409   9.0949  68.4294   N.pl3     1 RES1   0.0000
    72 O72     32.1449  11.4039  67.7063   O.2       1 RES1   0.0000
    73 C73     31.4929   9.9599  64.7382   C.2       1 RES1   0.0000
    74 C74     30.6159   9.3739  63.8231   C.2       1 RES1   0.0000
    75 C75     29.8419   8.2619  64.1921   C.2       1 RES1   0.0000
    76 N76     28.2549   4.4609  65.2652   N.2       1 RES1   0.0000
    77 C77     27.4419   3.6960  64.4971   C.2       1 RES1   0.0000
    78 C78     26.6569   4.2750  63.5341   C.2       1 RES1   0.0000
    79 C79     25.7629   3.4150  62.6900   C.1       1 RES1   0.0000
    80 N80     25.0819   2.7570  62.0480   N.1       1 RES1   0.0000
    81 S81     26.4169   7.1149  61.0459   S.3       1 RES1   0.0000
    82 C82     23.0179  10.3089  60.9789   C.3       1 RES1   0.0000
    83 N83     24.3159  10.1909  61.6240   N.pl3     1 RES1   0.0000
    84 C84     24.6299   8.9329  62.2530   C.2       1 RES1   0.0000
    85 N85     23.6549   7.9609  62.5030   N.2       1 RES1   0.0000
    86 C86     24.2199   6.7529  63.1371   C.2       1 RES1   0.0000
    87 C87     23.3489   5.6049  63.5101   C.3       1 RES1   0.0000
    88 C88     25.6419   6.9049  63.3031   C.2       1 RES1   0.0000
    89 C89     26.6119   5.8889  63.9161   C.2       1 RES1   0.0000
    90 N90     27.6559   6.3919  64.6161   N.2       1 RES1   0.0000
    91 C91     28.6219   5.5899  65.1862   C.2       1 RES1   0.0000
    92 N92     29.7169   6.1619  65.9272   N.pl3     1 RES1   0.0000
    93 C93     30.2759   7.4459  65.5212   C.2       1 RES1   0.0000
    94 C94     31.0919   8.1149  66.4463   C.2       1 RES1   0.0000
    95 C95     31.6549   9.3679  66.1392   C.2       1 RES1   0.0000
    96 S96     32.7069  10.1749  67.3383   S.o2      1 RES1   0.0000
    97 O97     34.0239  10.4079  66.7873   O.2       1 RES1   0.0000
    98 N98     32.8339   9.1779  68.6324   N.pl3     1 RES1   0.0000
    99 O99     32.1149  11.4269  67.7363   O.2       1 RES1   0.0000
   100 C100    31.3799   9.9579  64.9082   C.2       1 RES1   0.0000
   101 C101    30.5519   9.2949  63.9861   C.2       1 RES1   0.0000
   102 C102    29.9949   8.0369  64.2941   C.2       1 RES1   0.0000
   103 N103    28.5489   4.2380  65.0902   N.2       1 RES1   0.0000
   104 C104    27.5229   3.7010  64.3991   C.2       1 RES1   0.0000
   105 C105    26.5599   4.4889  63.8091   C.2       1 RES1   0.0000
   106 C106    25.5149   3.7110  63.0760   C.1       1 RES1   0.0000
   107 N107    24.7389   3.0790  62.5200   N.1       1 RES1   0.0000
   108 S108    26.0939   8.3969  62.7560   S.3       1 RES1   0.0000
   109 H1      30.3384   9.7577  63.0237   H         1 RES1   0.0000
   110 H2      31.8049  10.9296  64.6608   H         1 RES1   0.0000
   111 H3      27.4543   2.6182  64.3054   H         1 RES1   0.0000
   112 H4      29.3497   7.5319  63.5767   H         1 RES1   0.0000
   113 H5      29.5880  11.0403  60.0565   H         1 RES1   0.0000
   114 H6      30.4591   9.6713  60.7328   H         1 RES1   0.0000
   115 H7      22.2310  10.1486  61.7145   H         1 RES1   0.0000
   116 H8      22.9155  11.3041  60.5487   H         1 RES1   0.0000
   117 H9      22.9352   9.5623  60.1904   H         1 RES1   0.0000
   118 H10     24.9742  10.9635  61.6310   H         1 RES1   0.0000
   119 H11     22.8580   5.2171  62.6187   H         1 RES1   0.0000
   120 H12     23.9553   4.8206  63.9608   H         1 RES1   0.0000
   121 H13     22.5962   5.9371  64.2236   H         1 RES1   0.0000
   122 H14     33.3179   9.2359  65.3177   H         1 RES1   0.0000
   123 H15     32.2386  10.7768  63.6963   H         1 RES1   0.0000
   124 H16     30.0985   5.6721  66.7302   H         1 RES1   0.0000
   125 H17     31.2922   7.6586  67.4146   H         1 RES1   0.0000
   126 H18     29.1562   7.8109  63.4762   H         1 RES1   0.0000
   127 H19     30.5317   9.7819  62.8169   H         1 RES1   0.0000
   128 H20     32.0924  10.8204  64.4449   H         1 RES1   0.0000
   129 H21     33.4306   9.3045  69.2285   H         1 RES1   0.0000
   130 H22     32.3360   8.2154  68.3881   H         1 RES1   0.0000
   131 H23     29.2506   6.3374  66.9236   H         1 RES1   0.0000
   132 H24     30.9030   7.9394  67.3977   H         1 RES1   0.0000
   133 H25     22.8959   4.8413  62.6297   H         1 RES1   0.0000
   134 H26     24.0639   5.1169  63.9420   H         1 RES1   0.0000
   135 H27     22.8154   6.3341  63.5928   H         1 RES1   0.0000
   136 H28     24.0620   8.4137  58.6009   H         1 RES1   0.0000
   137 H29     26.8821   8.1670  58.3179   H         1 RES1   0.0000
   138 H30     25.8878   9.4737  57.6350   H         1 RES1   0.0000
   139 H31     26.5455   9.6239  59.2804   H         1 RES1   0.0000
   140 H32     27.4121   2.6176  64.6454   H         1 RES1   0.0000
   141 H33     28.4665   8.6314  63.7618   H         1 RES1   0.0000
   142 H34     29.5835   6.5126  66.5149   H         1 RES1   0.0000
   143 H35     22.8461   4.6487  62.2927   H         1 RES1   0.0000
   144 H36     23.8894   4.9550  63.6999   H         1 RES1   0.0000
   145 H37     22.6242   6.1246  63.2597   H         1 RES1   0.0000
   146 H38     24.0694   8.3225  58.4182   H         1 RES1   0.0000
   147 H39     26.9181   8.2705  58.3450   H         1 RES1   0.0000
   148 H40     25.8946   9.5283  57.6150   H         1 RES1   0.0000
   149 H41     26.4135   9.6768  59.3095   H         1 RES1   0.0000
   150 H42     27.9210   2.8669  64.1364   H         1 RES1   0.0000
   151 H43     32.0120   7.3834  66.3389   H         1 RES1   0.0000
   152 H44     33.3941   9.4538  69.4326   H         1 RES1   0.0000
   153 H45     32.3523   8.2844  68.6339   H         1 RES1   0.0000
   154 H46     29.5516  10.8063  60.3378   H         1 RES1   0.0000
   155 H47     30.4555   9.4820  61.0586   H         1 RES1   0.0000
   156 H48     28.5385   8.6292  64.1410   H         1 RES1   0.0000
   157 H49     22.8202   4.7605  62.9172   H         1 RES1   0.0000
   158 H50     24.0721   4.6901  64.1783   H         1 RES1   0.0000
   159 H51     22.6319   5.7072  64.4108   H         1 RES1   0.0000
   160 H52     24.6028  10.3244  60.7489   H         1 RES1   0.0000
   161 H53     21.8844   9.9325  61.4931   H         1 RES1   0.0000
   162 H54     22.4419  10.7814  60.0333   H         1 RES1   0.0000
   163 H55     22.1875   9.0217  59.9961   H         1 RES1   0.0000
   164 H56     27.3167   2.7223  64.8237   H         1 RES1   0.0000
   165 H57     31.9068   7.3681  66.0086   H         1 RES1   0.0000
   166 H58     29.5331   6.6021  66.9003   H         1 RES1   0.0000
   167 H59     33.1960   9.3065  65.1211   H         1 RES1   0.0000
   168 H60     32.1422  10.8924  63.5123   H         1 RES1   0.0000
@<TRIPOS>BOND
     1     1     2    1
     2     2     3    1
     3     3     4    2
     4     3    27    1
     5     4     5    1
     6     5     6    1
     7     5     7    2
     8     7     8    1
     9     7    27    1
    10     8     9    2
    11     8    24    1
    12     9    10    1
    13    10    11    1
    14    10    22    2
    15    11    12    1
    16    12    13    2
    17    12    21    1
    18    13    14    1
    19    14    15    1
    20    14    19    2
    21    15    16    2
    22    15    17    1
    23    15    18    2
    24    19    20    1
    25    20    21    2
    26    22    23    1
    27    23    24    2
    28    24    25    1
    29    25    26    3
    30    28    29    1
    31    29    30    1
    32    30    31    2
    33    30    54    1
    34    31    32    1
    35    32    33    1
    36    32    34    2
    37    34    35    1
    38    34    54    1
    39    35    36    2
    40    35    51    1
    41    36    37    1
    42    37    38    1
    43    37    49    2
    44    38    39    1
    45    39    40    2
    46    39    48    1
    47    40    41    1
    48    41    42    1
    49    41    46    2
    50    42    43    2
    51    42    44    1
    52    42    45    2
    53    46    47    1
    54    47    48    2
    55    49    50    1
    56    50    51    2
    57    51    52    1
    58    52    53    3
    59    55    56    1
    60    56    57    1
    61    57    58    2
    62    57    81    1
    63    58    59    1
    64    59    60    1
    65    59    61    2
    66    61    62    1
    67    61    81    1
    68    62    63    2
    69    62    78    1
    70    63    64    1
    71    64    65    1
    72    64    76    2
    73    65    66    1
    74    66    67    2
    75    66    75    1
    76    67    68    1
    77    68    69    1
    78    68    73    2
    79    69    70    2
    80    69    71    1
    81    69    72    2
    82    73    74    1
    83    74    75    2
    84    76    77    1
    85    77    78    2
    86    78    79    1
    87    79    80    3
    88    82    83    1
    89    83    84    1
    90    84    85    2
    91    84   108    1
    92    85    86    1
    93    86    87    1
    94    86    88    2
    95    88    89    1
    96    88   108    1
    97    89    90    2
    98    89   105    1
    99    90    91    1
   100    91    92    1
   101    91   103    2
   102    92    93    1
   103    93    94    2
   104    93   102    1
   105    94    95    1
   106    95    96    1
   107    95   100    2
   108    96    97    2
   109    96    98    1
   110    96    99    2
   111   100   101    1
   112   101   102    2
   113   103   104    1
   114   104   105    2
   115   105   106    1
   116   106   107    3
   117   101   109    1
   118   100   110    1
   119   104   111    1
   120   102   112    1
   121    44   113    1
   122    44   114    1
   123    82   115    1
   124    82   116    1
   125    82   117    1
   126    83   118    1
   127    87   119    1
   128    87   120    1
   129    87   121    1
   130    20   122    1
   131    19   123    1
   132    92   124    1
   133    94   125    1
   134    75   126    1
   135    74   127    1
   136    73   128    1
   137    71   129    1
   138    71   130    1
   139    65   131    1
   140    67   132    1
   141    60   133    1
   142    60   134    1
   143    60   135    1
   144    56   136    1
   145    55   137    1
   146    55   138    1
   147    55   139    1
   148    77   140    1
   149    40   141    1
   150    38   142    1
   151    33   143    1
   152    33   144    1
   153    33   145    1
   154    29   146    1
   155    28   147    1
   156    28   148    1
   157    28   149    1
   158    23   150    1
   159    21   151    1
   160    98   152    1
   161    98   153    1
   162    17   154    1
   163    17   155    1
   164    13   156    1
   165     6   157    1
   166     6   158    1
   167     6   159    1
   168     2   160    1
   169     1   161    1
   170     1   162    1
   171     1   163    1
   172    50   164    1
   173    48   165    1
   174    11   166    1
   175    47   167    1
   176    46   168    1
@<TRIPOS>SUBSTRUCTURE
     1 RES1        1 GROUP             0 ****  ****    0  
@<TRIPOS>MOLECULE
3RK9:A:09Z483
    32    33     1     0     0
SMALL
NO_CHARGES
****
Generated from the CSD

@<TRIPOS>ATOM
     1 C1      31.1597   8.2200  66.7460   C.3       1 RES1   0.0000
     2 C2      30.3007   7.7000  65.5580   C.3       1 RES1   0.0000
     3 C3      31.1967   7.5530  64.3000   C.3       1 RES1   0.0000
     4 N4      29.7297   6.3970  65.9480   N.pl3     1 RES1   0.0000
     5 C5      28.6766   5.8270  65.2440   C.2       1 RES1   0.0000
     6 N6      28.3386   4.5230  65.4370   N.2       1 RES1   0.0000
     7 C7      27.3056   4.1890  64.6560   C.2       1 RES1   0.0000
     8 C8      26.8486   5.2070  63.8630   C.2       1 RES1   0.0000
     9 S9      27.7236   6.6450  64.1040   S.3       1 RES1   0.0000
    10 N10     26.8086   2.9960  64.6560   N.pl3     1 RES1   0.0000
    11 C11     25.7046   5.0740  62.8810   C.2       1 RES1   0.0000
    12 C12     25.2516   6.1720  61.9910   C.2       1 RES1   0.0000
    13 C13     26.2336   6.9480  61.2450   C.2       1 RES1   0.0000
    14 C14     25.8316   8.0160  60.3630   C.2       1 RES1   0.0000
    15 C15     24.4445   8.3040  60.2240   C.2       1 RES1   0.0000
    16 N16     23.4985   7.5520  60.9350   N.2       1 RES1   0.0000
    17 C17     23.8485   6.4870  61.8190   C.2       1 RES1   0.0000
    18 O18     25.0776   3.8790  62.7930   O.2       1 RES1   0.0000
    19 H1      23.0807   5.9263  62.3500   H         1 RES1   0.0000
    20 H2      30.1148   5.9060  66.7485   H         1 RES1   0.0000
    21 H3      31.5870   9.1881  66.4886   H         1 RES1   0.0000
    22 H4      30.5320   8.3237  67.6298   H         1 RES1   0.0000
    23 H5      31.9616   7.5123  66.9513   H         1 RES1   0.0000
    24 H6      29.4961   8.4047  65.3531   H         1 RES1   0.0000
    25 H7      31.9985   6.8455  64.5061   H         1 RES1   0.0000
    26 H8      30.5965   7.1890  63.4674   H         1 RES1   0.0000
    27 H9      31.6239   8.5213  64.0435   H         1 RES1   0.0000
    28 H10     26.0241   2.7730  64.0517   H         1 RES1   0.0000
    29 H11     27.2027   2.2820  65.2603   H         1 RES1   0.0000
    30 H12     27.2921   6.7170  61.3556   H         1 RES1   0.0000
    31 H13     26.5753   8.5913  59.8136   H         1 RES1   0.0000
    32 H14     24.1183   9.1079  59.5658   H         1 RES1   0.0000
@<TRIPOS>BOND
     1     1     2    1
     2     2     3    1
     3     2     4    1
     4     4     5    1
     5     5     6    2
     6     5     9    1
     7     6     7    1
     8     7     8    2
     9     7    10    1
    10     8     9    1
    11     8    11    1
    12    11    12    1
    13    11    18    2
    14    12    13    2
    15    12    17    1
    16    13    14    1
    17    14    15    2
    18    15    16    1
    19    16    17    2
    20    17    19    1
    21     4    20    1
    22     1    21    1
    23     1    22    1
    24     1    23    1
    25     2    24    1
    26     3    25    1
    27     3    26    1
    28     3    27    1
    29    10    28    1
    30    10    29    1
    31    13    30    1
    32    14    31    1
    33    15    32    1
@<TRIPOS>SUBSTRUCTURE
     1 RES1        1 GROUP             0 ****  ****    0  
@<TRIPOS>MOLECULE
3EZV:A:EZV300
    57    62     1     0     0
SMALL
NO_CHARGES
****
Generated from the CSD

@<TRIPOS>ATOM
     1 C1      25.3990   5.8231  62.4352   C.2       1 RES1   0.0000
     2 C2      24.8650   4.5610  62.5202   C.2       1 RES1   0.0000
     3 C3      25.4070   3.6150  63.3592   C.2       1 RES1   0.0000
     4 C4      26.4910   4.0310  64.0892   C.2       1 RES1   0.0000
     5 C5      27.0540   5.2871  64.0022   C.2       1 RES1   0.0000
     6 C6      26.5000   6.2281  63.1542   C.2       1 RES1   0.0000
     7 N7      27.2500   3.3470  64.9912   N.pl3     1 RES1   0.0000
     8 N8      28.2660   4.0590  65.5002   N.2       1 RES1   0.0000
     9 C9      28.1500   5.2511  64.8992   C.2       1 RES1   0.0000
    10 C10     29.1160   6.3441  65.1402   C.2       1 RES1   0.0000
    11 N11     30.1300   6.2531  65.9642   N.2       1 RES1   0.0000
    12 C12     30.7800   7.4551  65.8962   C.2       1 RES1   0.0000
    13 C13     30.1490   8.2941  65.0052   C.2       1 RES1   0.0000
    14 N14     29.0980   7.5671  64.5362   N.pl3     1 RES1   0.0000
    15 C15     31.9080   7.8761  66.5742   C.2       1 RES1   0.0000
    16 C16     32.3330   9.1541  66.2992   C.2       1 RES1   0.0000
    17 C17     31.6840   9.9711  65.4052   C.2       1 RES1   0.0000
    18 C18     30.5630   9.5731  64.7202   C.2       1 RES1   0.0000
    19 C19     23.7800   4.1820  61.6592   C.2       1 RES1   0.0000
    20 N20     29.8970  10.4021  63.8152   N.3       1 RES1   0.0000
    21 C21     29.6650   9.6511  62.6072   C.3       1 RES1   0.0000
    22 C22     28.7600  10.4971  61.7452   C.3       1 RES1   0.0000
    23 N23     29.4710  11.7751  61.4752   N.3       1 RES1   0.0000
    24 C24     29.8570  12.5241  62.6992   C.3       1 RES1   0.0000
    25 C25     30.6600  11.6091  63.5942   C.3       1 RES1   0.0000
    26 C26     28.6950  12.6281  60.5462   C.3       1 RES1   0.0000
    27 C27     22.7720   5.0390  61.2842   C.2       1 RES1   0.0000
    28 C28     21.7960   4.6170  60.4092   C.2       1 RES1   0.0000
    29 C29     21.8080   3.3390  59.8992   C.2       1 RES1   0.0000
    30 C30     22.8150   2.4790  60.2772   C.2       1 RES1   0.0000
    31 C31     23.7920   2.9080  61.1422   C.2       1 RES1   0.0000
    32 N32     20.8170   2.9030  58.9992   N.pl3     1 RES1   0.0000
    33 H1      28.9619  12.8561  63.2231   H         1 RES1   0.0000
    34 H2      30.4590  13.3891  62.4249   H         1 RES1   0.0000
    35 H3      31.6063  11.3633  63.1147   H         1 RES1   0.0000
    36 H4      30.8526  12.1019  64.5460   H         1 RES1   0.0000
    37 H5      27.7248  12.8544  60.9859   H         1 RES1   0.0000
    38 H6      29.2371  13.5552  60.3661   H         1 RES1   0.0000
    39 H7      28.5525  12.1019  59.6035   H         1 RES1   0.0000
    40 H8      22.7456   6.0532  61.6799   H         1 RES1   0.0000
    41 H9      21.0035   5.3043  60.1167   H         1 RES1   0.0000
    42 H10     22.8367   1.4610  59.8911   H         1 RES1   0.0000
    43 H11     24.5922   2.2253  61.4242   H         1 RES1   0.0000
    44 H12     20.8438   1.9562  58.6344   H         1 RES1   0.0000
    45 H13     20.0757   3.5355  58.7151   H         1 RES1   0.0000
    46 H14     26.9114   7.2321  63.0607   H         1 RES1   0.0000
    47 H15     33.2174   9.5333  66.8091   H         1 RES1   0.0000
    48 H16     32.0741  10.9732  65.2334   H         1 RES1   0.0000
    49 H17     27.0630   2.3847  65.2542   H         1 RES1   0.0000
    50 H18     32.4287   7.2344  67.2834   H         1 RES1   0.0000
    51 H19     29.1838   8.7024  62.8403   H         1 RES1   0.0000
    52 H20     30.6069   9.4639  62.0936   H         1 RES1   0.0000
    53 H21     24.9272   6.5399  61.7647   H         1 RES1   0.0000
    54 H22     28.4165   7.8817  63.8529   H         1 RES1   0.0000
    55 H23     27.8254  10.6943  62.2682   H         1 RES1   0.0000
    56 H24     28.5503   9.9826  60.8086   H         1 RES1   0.0000
    57 H25     25.0036   2.6066  63.4382   H         1 RES1   0.0000
@<TRIPOS>BOND
     1     1     2    2
     2     1     6    1
     3     2     3    1
     4     2    19    1
     5     3     4    2
     6     4     5    1
     7     4     7    1
     8     5     6    2
     9     5     9    1
    10     7     8    1
    11     8     9    2
    12     9    10    1
    13    10    11    2
    14    10    14    1
    15    11    12    1
    16    12    13    2
    17    12    15    1
    18    13    14    1
    19    13    18    1
    20    15    16    2
    21    16    17    1
    22    17    18    2
    23    18    20    1
    24    19    27    2
    25    19    31    1
    26    20    21    1
    27    20    25    1
    28    21    22    1
    29    22    23    1
    30    23    24    1
    31    23    26    1
    32    24    25    1
    33    27    28    1
    34    28    29    2
    35    29    30    1
    36    29    32    1
    37    30    31    2
    38    24    33    1
    39    24    34    1
    40    25    35    1
    41    25    36    1
    42    26    37    1
    43    26    38    1
    44    26    39    1
    45    27    40    1
    46    28    41    1
    47    30    42    1
    48    31    43    1
    49    32    44    1
    50    32    45    1
    51     6    46    1
    52    16    47    1
    53    17    48    1
    54     7    49    1
    55    15    50    1
    56    21    51    1
    57    21    52    1
    58     1    53    1
    59    14    54    1
    60    22    55    1
    61    22    56    1
    62     3    57    1
@<TRIPOS>SUBSTRUCTURE
     1 RES1        1 GROUP             0 ****  ****    0  
@<TRIPOS>MOLECULE
2VTT:A:LZD1299
    42    44     1     0     0
SMALL
NO_CHARGES
****
Generated from the CSD

@<TRIPOS>ATOM
     1 C1      32.8746   9.6172  65.3311   C.3       1 RES1   0.0000
     2 C2      32.1976   9.3292  66.6672   C.3       1 RES1   0.0000
     3 C3      31.4646   7.9932  66.6342   C.3       1 RES1   0.0000
     4 C4      30.4697   7.9602  65.4751   C.3       1 RES1   0.0000
     5 N5      29.7667   6.6751  65.4021   N.am      1 RES1   0.0000
     6 C6      28.5327   6.5931  64.8571   C.2       1 RES1   0.0000
     7 O7      27.9527   7.5672  64.3841   O.2       1 RES1   0.0000
     8 C8      27.9067   5.2561  64.8201   C.2       1 RES1   0.0000
     9 N9      28.3647   4.1961  65.5421   N.pl3     1 RES1   0.0000
    10 N10     27.5367   3.1641  65.2271   N.2       1 RES1   0.0000
    11 C11     26.5757   3.5431  64.3541   C.2       1 RES1   0.0000
    12 C12     26.7987   4.8881  64.0671   C.2       1 RES1   0.0000
    13 N13     26.1287   5.7551  63.2151   N.am      1 RES1   0.0000
    14 C14     25.1877   5.4131  62.3160   C.2       1 RES1   0.0000
    15 O15     24.7177   4.2741  62.2320   O.2       1 RES1   0.0000
    16 C16     24.7337   6.5061  61.4030   C.2       1 RES1   0.0000
    17 C17     25.6237   7.1441  60.5320   C.2       1 RES1   0.0000
    18 F18     26.9177   6.7621  60.5370   F         1 RES1   0.0000
    19 C19     25.2007   8.1642  59.6779   C.2       1 RES1   0.0000
    20 C20     23.8687   8.5472  59.6789   C.2       1 RES1   0.0000
    21 C21     22.9707   7.9212  60.5320   C.2       1 RES1   0.0000
    22 C22     23.4147   6.9061  61.3800   C.2       1 RES1   0.0000
    23 F23     22.5507   6.3001  62.2150   F         1 RES1   0.0000
    24 C24     31.1796   8.2802  64.1471   C.3       1 RES1   0.0000
    25 N25     31.8756   9.5962  64.2241   N.3       1 RES1   0.0000
    26 H1      30.4421   8.3124  63.3465   H         1 RES1   0.0000
    27 H2      31.9107   7.5012  63.9361   H         1 RES1   0.0000
    28 H3      32.3525   9.7699  63.3451   H         1 RES1   0.0000
    29 H4      25.9121   8.6554  59.0157   H         1 RES1   0.0000
    30 H5      25.7802   2.9171  63.9526   H         1 RES1   0.0000
    31 H6      21.9238   8.2211  60.5395   H         1 RES1   0.0000
    32 H7      29.1549   4.1797  66.1790   H         1 RES1   0.0000
    33 H8      23.5275   9.3375  59.0118   H         1 RES1   0.0000
    34 H9      26.3711   6.7388  63.2759   H         1 RES1   0.0000
    35 H10     30.2118   5.8381  65.7649   H         1 RES1   0.0000
    36 H11     30.9280   7.8550  67.5717   H         1 RES1   0.0000
    37 H12     32.1887   7.1896  66.5085   H         1 RES1   0.0000
    38 H13     33.6337   8.8593  65.1432   H         1 RES1   0.0000
    39 H14     33.3441  10.5990  65.3715   H         1 RES1   0.0000
    40 H15     29.7269   8.7368  65.6514   H         1 RES1   0.0000
    41 H16     31.4825  10.1220  66.8818   H         1 RES1   0.0000
    42 H17     32.9538   9.3007  67.4503   H         1 RES1   0.0000
@<TRIPOS>BOND
     1     1     2    1
     2     1    25    1
     3     2     3    1
     4     3     4    1
     5     4     5    1
     6     4    24    1
     7     5     6   am
     8     6     7    2
     9     6     8    1
    10     8     9    1
    11     8    12    2
    12     9    10    1
    13    10    11    2
    14    11    12    1
    15    12    13    1
    16    13    14   am
    17    14    15    2
    18    14    16    1
    19    16    17    2
    20    16    22    1
    21    17    18    1
    22    17    19    1
    23    19    20    2
    24    20    21    1
    25    21    22    2
    26    22    23    1
    27    24    25    1
    28    24    26    1
    29    24    27    1
    30    25    28    1
    31    19    29    1
    32    11    30    1
    33    21    31    1
    34     9    32    1
    35    20    33    1
    36    13    34    1
    37     5    35    1
    38     3    36    1
    39     3    37    1
    40     1    38    1
    41     1    39    1
    42     4    40    1
    43     2    41    1
    44     2    42    1
@<TRIPOS>SUBSTRUCTURE
     1 RES1        1 GROUP             0 ****  ****    0  
@<TRIPOS>MOLECULE
6GUK:A:FC8301
    51    54     1     0     0
SMALL
NO_CHARGES
****
Generated from the CSD

@<TRIPOS>ATOM
     1 C1      28.2932   5.7001  65.0126   C.2       1 RES1   0.0000
     2 C2      26.8852  11.4601  63.0476   C.3       1 RES1   0.0000
     3 C3      29.0472   6.8831  65.1406   C.2       1 RES1   0.0000
     4 C4      31.0632   7.9981  66.0976   C.2       1 RES1   0.0000
     5 C5      31.5422   8.7421  65.0216   C.2       1 RES1   0.0000
     6 C6      31.4182   8.3501  67.3926   C.2       1 RES1   0.0000
     7 C7      32.3012   9.3971  67.6106   C.2       1 RES1   0.0000
     8 C8      32.8032  10.1101  66.5586   C.2       1 RES1   0.0000
     9 C9      32.4362   9.7391  65.2896   C.2       1 RES1   0.0000
    10 C10     27.5532   7.8941  63.6626   C.2       1 RES1   0.0000
    11 C11     27.8552  10.3091  63.3296   C.3       1 RES1   0.0000
    12 N12     26.6011   4.5200  64.2186   N.pl3     1 RES1   0.0000
    13 N13     28.4452   4.4230  65.5416   N.2       1 RES1   0.0000
    14 C14     27.4212   3.7580  65.0386   C.2       1 RES1   0.0000
    15 N15     30.1592   6.9351  65.9246   N.pl3     1 RES1   0.0000
    16 C16     24.0951   4.7240  63.7816   C.3       1 RES1   0.0000
    17 C17     25.4171   4.0570  63.4706   C.3       1 RES1   0.0000
    18 Cl18    33.0832  10.5901  63.9276   Cl        1 RES1   0.0000
    19 N19     28.6782   7.9781  64.4426   N.2       1 RES1   0.0000
    20 N20     27.2212   9.0381  63.0026   N.pl3     1 RES1   0.0000
    21 C21     27.5552  12.7941  63.3966   C.3       1 RES1   0.0000
    22 C22     28.8812  12.9731  62.6776   C.3       1 RES1   0.0000
    23 C23     29.8212  11.7951  62.9306   C.3       1 RES1   0.0000
    24 C24     29.1722  10.4621  62.5616   C.3       1 RES1   0.0000
    25 N25     28.9832  10.3751  61.0736   N.3       1 RES1   0.0000
    26 N26     26.7592   6.8231  63.4666   N.2       1 RES1   0.0000
    27 C27     27.1952   5.7351  64.1656   C.2       1 RES1   0.0000
    28 H1      25.3009   2.9925  63.6685   H         1 RES1   0.0000
    29 H2      25.6192   4.2094  62.4114   H         1 RES1   0.0000
    30 H3      28.0820  10.3104  64.3947   H         1 RES1   0.0000
    31 H4      33.4764  10.9502  66.7229   H         1 RES1   0.0000
    32 H5      25.9888  11.3353  63.6532   H         1 RES1   0.0000
    33 H6      26.6142  11.4556  61.9929   H         1 RES1   0.0000
    34 H7      30.0877  11.7772  63.9863   H         1 RES1   0.0000
    35 H8      30.7209  11.9270  62.3313   H         1 RES1   0.0000
    36 H9      27.2368   2.7055  65.2486   H         1 RES1   0.0000
    37 H10     31.2155   8.5361  64.0034   H         1 RES1   0.0000
    38 H11     31.0030   7.8036  68.2381   H         1 RES1   0.0000
    39 H12     24.1692   5.7907  63.5751   H         1 RES1   0.0000
    40 H13     23.3136   4.2877  63.1613   H         1 RES1   0.0000
    41 H14     23.8510   4.5737  64.8322   H         1 RES1   0.0000
    42 H15     26.5197   9.0050  62.2698   H         1 RES1   0.0000
    43 H16     28.3559  11.1124  60.7685   H         1 RES1   0.0000
    44 H17     29.8807  10.4819  60.6117   H         1 RES1   0.0000
    45 H18     29.8416   9.6598  62.8683   H         1 RES1   0.0000
    46 H19     30.3628   6.0941  66.4551   H         1 RES1   0.0000
    47 H20     29.3556  13.8866  63.0331   H         1 RES1   0.0000
    48 H21     28.6951  13.0534  61.6076   H         1 RES1   0.0000
    49 H22     27.7308  12.8284  64.4708   H         1 RES1   0.0000
    50 H23     26.8888  13.6069  63.1116   H         1 RES1   0.0000
    51 H24     32.5965   9.6527  68.6272   H         1 RES1   0.0000
@<TRIPOS>BOND
     1     1     3    1
     2     1    13    1
     3     1    27    2
     4     2    11    1
     5     2    21    1
     6     3    15    1
     7     3    19    2
     8     4     5    2
     9     4     6    1
    10     4    15    1
    11     5     9    1
    12     6     7    2
    13     7     8    1
    14     8     9    2
    15     9    18    1
    16    10    19    1
    17    10    20    1
    18    10    26    2
    19    11    20    1
    20    11    24    1
    21    12    14    1
    22    12    17    1
    23    12    27    1
    24    13    14    2
    25    16    17    1
    26    21    22    1
    27    22    23    1
    28    23    24    1
    29    24    25    1
    30    26    27    1
    31    17    28    1
    32    17    29    1
    33    11    30    1
    34     8    31    1
    35     2    32    1
    36     2    33    1
    37    23    34    1
    38    23    35    1
    39    14    36    1
    40     5    37    1
    41     6    38    1
    42    16    39    1
    43    16    40    1
    44    16    41    1
    45    20    42    1
    46    25    43    1
    47    25    44    1
    48    24    45    1
    49    15    46    1
    50    22    47    1
    51    22    48    1
    52    21    49    1
    53    21    50    1
    54     7    51    1
@<TRIPOS>SUBSTRUCTURE
     1 RES1        1 GROUP             0 ****  ****    0  
@<TRIPOS>MOLECULE
4BCQ:A:TJF1296
    52    55     1     0     0
SMALL
NO_CHARGES
****
Generated from the CSD

@<TRIPOS>ATOM
     1 C1      25.8479   9.1908  58.8476   C.3       1 RES1   0.0000
     2 N2      24.7109   8.8928  59.6736   N.pl3     1 RES1   0.0000
     3 C3      24.8269   8.0628  60.8346   C.2       1 RES1   0.0000
     4 N4      23.7399   7.5738  61.5906   N.2       1 RES1   0.0000
     5 C5      24.2079   6.7438  62.7296   C.2       1 RES1   0.0000
     6 C6      23.2898   6.0869  63.7106   C.3       1 RES1   0.0000
     7 C7      25.6409   6.6848  62.7326   C.2       1 RES1   0.0000
     8 C8      26.5290   5.9599  63.6896   C.2       1 RES1   0.0000
     9 N9      27.4130   6.6598  64.4156   N.2       1 RES1   0.0000
    10 C10     28.2500   6.0619  65.2686   C.2       1 RES1   0.0000
    11 C11     30.1141   9.9548  64.2386   C.2       1 RES1   0.0000
    12 N12     29.1760   6.8158  66.0546   N.pl3     1 RES1   0.0000
    13 C13     29.7731   8.0728  65.7146   C.2       1 RES1   0.0000
    14 C14     30.6341   8.6568  66.6316   C.2       1 RES1   0.0000
    15 C15     31.2341   9.8748  66.3596   C.2       1 RES1   0.0000
    16 C16     30.9781  10.5258  65.1626   C.2       1 RES1   0.0000
    17 C17     26.6370  12.1687  63.4126   C.3       1 RES1   0.0000
    18 O18     26.3949  11.5977  62.1126   O.3       1 RES1   0.0000
    19 C19     28.0490  11.9377  63.8556   C.3       1 RES1   0.0000
    20 N20     28.8250  11.6157  62.7896   N.am      1 RES1   0.0000
    21 C21     29.8451  10.6388  62.9476   C.2       1 RES1   0.0000
    22 O22     30.5301  10.3538  61.9796   O.2       1 RES1   0.0000
    23 C23     28.6920  12.1567  61.5486   C.3       1 RES1   0.0000
    24 C24     27.2500  12.2677  61.1666   C.3       1 RES1   0.0000
    25 C25     29.5221   8.7328  64.5136   C.2       1 RES1   0.0000
    26 N26     28.2120   4.7329  65.4336   N.2       1 RES1   0.0000
    27 C27     27.3580   3.9659  64.7406   C.2       1 RES1   0.0000
    28 C28     26.4860   4.5669  63.8346   C.2       1 RES1   0.0000
    29 C29     25.5319   3.7329  63.0496   C.1       1 RES1   0.0000
    30 N30     24.7999   3.1009  62.4516   N.1       1 RES1   0.0000
    31 S31     26.2129   7.5418  61.4866   S.3       1 RES1   0.0000
    32 H1      28.0714  11.1222  64.5770   H         1 RES1   0.0000
    33 H2      28.4336  12.8443  64.3205   H         1 RES1   0.0000
    34 H3      30.8403   8.1527  67.5746   H         1 RES1   0.0000
    35 H4      28.8525   8.2827  63.7822   H         1 RES1   0.0000
    36 H5      25.9602  11.7108  64.1325   H         1 RES1   0.0000
    37 H6      26.4499  13.2406  63.3694   H         1 RES1   0.0000
    38 H7      29.2044  11.5227  60.8265   H         1 RES1   0.0000
    39 H8      29.1399  13.1493  61.5425   H         1 RES1   0.0000
    40 H9      26.9755  13.3208  61.1270   H         1 RES1   0.0000
    41 H10     27.1096  11.8188  60.1844   H         1 RES1   0.0000
    42 H11     27.3459   2.8864  64.8839   H         1 RES1   0.0000
    43 H12     22.6304   5.3976  63.1853   H         1 RES1   0.0000
    44 H13     23.8766   5.5385  64.4460   H         1 RES1   0.0000
    45 H14     22.6939   6.8462  64.2148   H         1 RES1   0.0000
    46 H15     23.8049   9.2793  59.4287   H         1 RES1   0.0000
    47 H16     26.2607   8.2647  58.4503   H         1 RES1   0.0000
    48 H17     25.5399   9.8336  58.0242   H         1 RES1   0.0000
    49 H18     26.6050   9.7001  59.4421   H         1 RES1   0.0000
    50 H19     31.9088  10.3225  67.0878   H         1 RES1   0.0000
    51 H20     29.4388   6.4174  66.9504   H         1 RES1   0.0000
    52 H21     31.4533  11.4819  64.9481   H         1 RES1   0.0000
@<TRIPOS>BOND
     1     1     2    1
     2     2     3    1
     3     3     4    2
     4     3    31    1
     5     4     5    1
     6     5     6    1
     7     5     7    2
     8     7     8    1
     9     7    31    1
    10     8     9    2
    11     8    28    1
    12     9    10    1
    13    10    12    1
    14    10    26    2
    15    11    16    1
    16    11    21    1
    17    11    25    2
    18    12    13    1
    19    13    14    2
    20    13    25    1
    21    14    15    1
    22    15    16    2
    23    17    18    1
    24    17    19    1
    25    18    24    1
    26    19    20    1
    27    20    21   am
    28    20    23    1
    29    21    22    2
    30    23    24    1
    31    26    27    1
    32    27    28    2
    33    28    29    1
    34    29    30    3
    35    19    32    1
    36    19    33    1
    37    14    34    1
    38    25    35    1
    39    17    36    1
    40    17    37    1
    41    23    38    1
    42    23    39    1
    43    24    40    1
    44    24    41    1
    45    27    42    1
    46     6    43    1
    47     6    44    1
    48     6    45    1
    49     2    46    1
    50     1    47    1
    51     1    48    1
    52     1    49    1
    53    15    50    1
    54    12    51    1
    55    16    52    1
@<TRIPOS>SUBSTRUCTURE
     1 RES1        1 GROUP             0 ****  ****    0  
@<TRIPOS>MOLECULE
3RPR:A:25Z529
    37    39     1     0     0
SMALL
NO_CHARGES
****
Generated from the CSD

@<TRIPOS>ATOM
     1 C1      25.7826   9.5498  60.5444   C.2       1 RES1   0.0000
     2 F2      26.2856  10.7788  63.9974   F         1 RES1   0.0000
     3 N3      28.7735   4.6199  65.4294   N.pl3     1 RES1   0.0000
     4 O4      25.7556   4.7839  62.3804   O.2       1 RES1   0.0000
     5 S5      28.5686   6.9159  64.2774   S.3       1 RES1   0.0000
     6 C6      25.9936   9.6288  61.9904   C.2       1 RES1   0.0000
     7 F7      24.7166  11.4648  62.5674   F         1 RES1   0.0000
     8 N8      30.3435   6.1939  66.1973   N.2       1 RES1   0.0000
     9 C9      26.2196   8.3719  62.7044   C.2       1 RES1   0.0000
    10 F10     26.8796  11.7748  62.0664   F         1 RES1   0.0000
    11 N11     27.0706   3.3319  64.3894   N.pl3     1 RES1   0.0000
    12 C12     26.2436   7.0699  62.0254   C.2       1 RES1   0.0000
    13 C13     26.0236   7.0649  60.5714   C.2       1 RES1   0.0000
    14 C14     25.7976   8.2889  59.8514   C.2       1 RES1   0.0000
    15 C15     25.9696  10.9018  62.6494   C.3       1 RES1   0.0000
    16 C16     26.4646   5.8749  62.7234   C.2       1 RES1   0.0000
    17 C17     27.5116   5.6699  63.8134   C.2       1 RES1   0.0000
    18 C18     29.3135   5.8689  65.3994   C.2       1 RES1   0.0000
    19 C19     27.7566   4.5009  64.5414   C.2       1 RES1   0.0000
    20 C20     31.1795   7.3349  66.1523   C.2       1 RES1   0.0000
    21 C21     31.4795   8.1449  64.9454   C.2       1 RES1   0.0000
    22 C22     32.3475   9.2978  65.0144   C.2       1 RES1   0.0000
    23 C23     32.9345   9.6728  66.2733   C.2       1 RES1   0.0000
    24 C24     32.6645   8.9059  67.4583   C.2       1 RES1   0.0000
    25 C25     31.7985   7.7539  67.3973   C.2       1 RES1   0.0000
    26 H1      31.6045   7.1854  68.3057   H         1 RES1   0.0000
    27 H2      33.1155   9.1956  68.4062   H         1 RES1   0.0000
    28 H3      33.5872  10.5428  66.3285   H         1 RES1   0.0000
    29 H4      32.5564   9.8800  64.1181   H         1 RES1   0.0000
    30 H5      31.0373   7.8651  63.9904   H         1 RES1   0.0000
    31 H6      25.6368   8.2614  58.7747   H         1 RES1   0.0000
    32 H7      26.3762   8.4031  63.7816   H         1 RES1   0.0000
    33 H8      26.0320   6.1193  60.0314   H         1 RES1   0.0000
    34 H9      29.0917   3.8732  66.0388   H         1 RES1   0.0000
    35 H10     26.3132   3.2717  63.7163   H         1 RES1   0.0000
    36 H11     27.3175   2.5221  64.9493   H         1 RES1   0.0000
    37 H12     25.6105  10.4654  59.9805   H         1 RES1   0.0000
@<TRIPOS>BOND
     1     1     6    2
     2     1    14    1
     3     2    15    1
     4     3    18    1
     5     3    19    1
     6     4    16    2
     7     5    17    1
     8     5    18    1
     9     6     9    1
    10     6    15    1
    11     7    15    1
    12     8    18    2
    13     8    20    1
    14     9    12    2
    15    10    15    1
    16    11    19    1
    17    12    13    1
    18    12    16    1
    19    13    14    2
    20    16    17    1
    21    17    19    2
    22    20    21    2
    23    20    25    1
    24    21    22    1
    25    22    23    2
    26    23    24    1
    27    24    25    2
    28    25    26    1
    29    24    27    1
    30    23    28    1
    31    22    29    1
    32    21    30    1
    33    14    31    1
    34     9    32    1
    35    13    33    1
    36     3    34    1
    37    11    35    1
    38    11    36    1
    39     1    37    1
@<TRIPOS>SUBSTRUCTURE
     1 RES1        1 GROUP             0 ****  ****    0  
@<TRIPOS>MOLECULE
4FKT:A:48K301
    49    51     1     0     0
SMALL
NO_CHARGES
****
Generated from the CSD

@<TRIPOS>ATOM
     1 S1      33.6122  10.9161  65.0106   S.o2      1 RES1   0.0000
     2 C2      30.8032  13.6641  69.0835   C.3       1 RES1   0.0000
     3 O3      34.3392  10.6921  63.7966   O.2       1 RES1   0.0000
     4 C4      32.3222  14.8761  67.6015   C.3       1 RES1   0.0000
     5 N5      32.9362  12.3791  64.8896   N.pl3     1 RES1   0.0000
     6 O6      34.3082  10.8721  66.2605   O.2       1 RES1   0.0000
     7 C7      31.5552  12.6001  66.9825   C.3       1 RES1   0.0000
     8 N8      29.3502   6.8041  65.0946   N.pl3     1 RES1   0.0000
     9 O9      28.5492   4.2450  65.8715   O.2       1 RES1   0.0000
    10 C10     31.6282  12.7151  65.4695   C.3       1 RES1   0.0000
    11 N11     26.7342   3.5240  64.5726   N.am      1 RES1   0.0000
    12 C12     32.3232   9.7291  65.0606   C.2       1 RES1   0.0000
    13 C13     32.1812   8.9151  66.1725   C.2       1 RES1   0.0000
    14 C14     31.2132   7.9281  66.1685   C.2       1 RES1   0.0000
    15 C15     30.3562   7.7971  65.0866   C.2       1 RES1   0.0000
    16 C16     28.3382   6.7191  64.2466   C.2       1 RES1   0.0000
    17 C17     27.4732   5.6530  64.1926   C.2       1 RES1   0.0000
    18 C18     27.6772   4.3960  65.0006   C.2       1 RES1   0.0000
    19 C19     25.9072   4.1030  63.5856   C.2       1 RES1   0.0000
    20 C20     24.8602   3.5380  62.8786   C.2       1 RES1   0.0000
    21 C21     24.1552   4.3370  61.9806   C.2       1 RES1   0.0000
    22 C22     24.5182   5.6710  61.7826   C.2       1 RES1   0.0000
    23 C23     25.6172   6.2121  62.4436   C.2       1 RES1   0.0000
    24 C24     26.3242   5.4300  63.3556   C.2       1 RES1   0.0000
    25 C25     30.5192   8.6181  63.9766   C.2       1 RES1   0.0000
    26 C26     31.5032   9.5831  63.9616   C.2       1 RES1   0.0000
    27 N27     31.2102  13.8871  67.6705   N.3       1 RES1   0.0000
    28 H1      28.1817   7.5421  63.5509   H         1 RES1   0.0000
    29 H2      32.8250   9.0512  67.0402   H         1 RES1   0.0000
    30 H3      25.9226   7.2393  62.2496   H         1 RES1   0.0000
    31 H4      29.8656   8.4981  63.1139   H         1 RES1   0.0000
    32 H5      24.5931   2.4919  63.0209   H         1 RES1   0.0000
    33 H6      23.9361   6.2936  61.1048   H         1 RES1   0.0000
    34 H7      31.6318  10.2239  63.0905   H         1 RES1   0.0000
    35 H8      31.1236   7.2518  67.0173   H         1 RES1   0.0000
    36 H9      30.4689  14.6051  69.5178   H         1 RES1   0.0000
    37 H10     29.9907  12.9398  69.1172   H         1 RES1   0.0000
    38 H11     31.6520  13.2841  69.6501   H         1 RES1   0.0000
    39 H12     33.1770  14.5009  68.1622   H         1 RES1   0.0000
    40 H13     32.6085  15.0284  66.5619   H         1 RES1   0.0000
    41 H14     31.9939  15.8219  68.0299   H         1 RES1   0.0000
    42 H15     33.4407  13.1027  64.3875   H         1 RES1   0.0000
    43 H16     32.5242  12.2639  67.3486   H         1 RES1   0.0000
    44 H17     30.7957  11.8615  67.2346   H         1 RES1   0.0000
    45 H18     23.3148   3.9181  61.4290   H         1 RES1   0.0000
    46 H19     29.4096   6.0923  65.8157   H         1 RES1   0.0000
    47 H20     30.8852  12.0433  65.0422   H         1 RES1   0.0000
    48 H21     31.3895  13.7417  65.1956   H         1 RES1   0.0000
    49 H22     26.6344   2.5746  64.9175   H         1 RES1   0.0000
@<TRIPOS>BOND
     1     1     3    2
     2     1     5    1
     3     1     6    2
     4     1    12    1
     5     2    27    1
     6     4    27    1
     7     5    10    1
     8     7    10    1
     9     7    27    1
    10     8    15    1
    11     8    16    1
    12     9    18    2
    13    11    18   am
    14    11    19    1
    15    12    13    2
    16    12    26    1
    17    13    14    1
    18    14    15    2
    19    15    25    1
    20    16    17    2
    21    17    18    1
    22    17    24    1
    23    19    20    1
    24    19    24    2
    25    20    21    2
    26    21    22    1
    27    22    23    2
    28    23    24    1
    29    25    26    2
    30    16    28    1
    31    13    29    1
    32    23    30    1
    33    25    31    1
    34    20    32    1
    35    22    33    1
    36    26    34    1
    37    14    35    1
    38     2    36    1
    39     2    37    1
    40     2    38    1
    41     4    39    1
    42     4    40    1
    43     4    41    1
    44     5    42    1
    45     7    43    1
    46     7    44    1
    47    21    45    1
    48     8    46    1
    49    10    47    1
    50    10    48    1
    51    11    49    1
@<TRIPOS>SUBSTRUCTURE
     1 RES1        1 GROUP             0 ****  ****    0  
@<TRIPOS>MOLECULE
3PJ8:A:404299
    52    54     1     0     0
SMALL
NO_CHARGES
****
Generated from the CSD

@<TRIPOS>ATOM
     1 C1      29.1906   6.7129  64.5244   C.2       1 RES1   0.0000
     2 C2      28.2516   5.5719  64.6264   C.2       1 RES1   0.0000
     3 C3      27.0286   5.6399  63.8154   C.2       1 RES1   0.0000
     4 N4      26.7736   6.7069  62.9924   N.2       1 RES1   0.0000
     5 C5      27.6996   7.7229  62.9464   C.2       1 RES1   0.0000
     6 N6      28.8446   7.7159  63.6964   N.2       1 RES1   0.0000
     7 N7      28.2206   4.4170  65.3244   N.pl3     1 RES1   0.0000
     8 N8      27.0546   3.6900  65.0134   N.2       1 RES1   0.0000
     9 C9      26.3116   4.3720  64.1254   C.2       1 RES1   0.0000
    10 C10     25.0016   4.0460  63.4924   C.3       1 RES1   0.0000
    11 C11     25.1606   3.8580  61.9794   C.3       1 RES1   0.0000
    12 C12     23.9387   5.0979  63.8154   C.3       1 RES1   0.0000
    13 N13     30.3376   6.7469  65.2414   N.pl3     1 RES1   0.0000
    14 C14     31.3466   7.7649  64.9854   C.3       1 RES1   0.0000
    15 C15     31.3526   8.7949  66.0964   C.2       1 RES1   0.0000
    16 C16     31.0656  10.1219  65.8064   C.2       1 RES1   0.0000
    17 C17     31.0646  11.0709  66.8194   C.2       1 RES1   0.0000
    18 C18     31.3506  10.6889  68.1244   C.2       1 RES1   0.0000
    19 C19     31.6375   9.3639  68.4194   C.2       1 RES1   0.0000
    20 C20     31.6335   8.4169  67.4054   C.2       1 RES1   0.0000
    21 N21     27.5326   8.8249  62.1694   N.pl3     1 RES1   0.0000
    22 C22     26.7226   8.8909  60.9644   C.3       1 RES1   0.0000
    23 C23     25.3386   9.4329  61.3034   C.3       1 RES1   0.0000
    24 C24     25.4456  10.5719  62.2894   C.3       1 RES1   0.0000
    25 C25     26.5886   7.5329  60.2854   C.3       1 RES1   0.0000
    26 O26     25.3396   6.9579  60.6874   O.3       1 RES1   0.0000
    27 H1      24.5960   7.5547  60.4101   H         1 RES1   0.0000
    28 H2      28.9349   4.1155  65.9794   H         1 RES1   0.0000
    29 H3      24.6627   3.0980  63.9076   H         1 RES1   0.0000
    30 H4      25.8566   3.0431  61.7860   H         1 RES1   0.0000
    31 H5      24.1930   3.6212  61.5394   H         1 RES1   0.0000
    32 H6      25.5451   4.7762  61.5379   H         1 RES1   0.0000
    33 H7      24.2651   6.0690  63.4462   H         1 RES1   0.0000
    34 H8      22.9998   4.8243  63.3363   H         1 RES1   0.0000
    35 H9      23.7946   5.1492  64.8936   H         1 RES1   0.0000
    36 H10     30.4965   6.0545  65.9663   H         1 RES1   0.0000
    37 H11     31.1264   8.2584  64.0400   H         1 RES1   0.0000
    38 H12     32.3263   7.2927  64.9288   H         1 RES1   0.0000
    39 H13     30.8410  10.4186  64.7830   H         1 RES1   0.0000
    40 H14     30.8403  12.1120  66.5920   H         1 RES1   0.0000
    41 H15     31.3496  11.4331  68.9194   H         1 RES1   0.0000
    42 H16     31.8649   9.0684  69.4426   H         1 RES1   0.0000
    43 H17     31.8509   7.3748  67.6349   H         1 RES1   0.0000
    44 H18     28.0134   9.6723  62.4540   H         1 RES1   0.0000
    45 H19     27.1994   9.5782  60.2671   H         1 RES1   0.0000
    46 H20     24.7382   8.6360  61.7397   H         1 RES1   0.0000
    47 H21     24.8605   9.7905  60.3927   H         1 RES1   0.0000
    48 H22     26.0433  11.3724  61.8559   H         1 RES1   0.0000
    49 H23     24.4496  10.9468  62.5204   H         1 RES1   0.0000
    50 H24     25.9211  10.2178  63.2029   H         1 RES1   0.0000
    51 H25     27.4089   6.8848  60.5903   H         1 RES1   0.0000
    52 H26     26.6070   7.6572  59.2037   H         1 RES1   0.0000
@<TRIPOS>BOND
     1     1     2    2
     2     1     6    1
     3     1    13    1
     4     2     3    1
     5     2     7    1
     6     3     4    2
     7     3     9    1
     8     4     5    1
     9     5     6    2
    10     5    21    1
    11     7     8    1
    12     8     9    2
    13     9    10    1
    14    10    11    1
    15    10    12    1
    16    13    14    1
    17    14    15    1
    18    15    16    2
    19    15    20    1
    20    16    17    1
    21    17    18    2
    22    18    19    1
    23    19    20    2
    24    21    22    1
    25    22    23    1
    26    22    25    1
    27    23    24    1
    28    25    26    1
    29    26    27    1
    30     7    28    1
    31    10    29    1
    32    11    30    1
    33    11    31    1
    34    11    32    1
    35    12    33    1
    36    12    34    1
    37    12    35    1
    38    13    36    1
    39    14    37    1
    40    14    38    1
    41    16    39    1
    42    17    40    1
    43    18    41    1
    44    19    42    1
    45    20    43    1
    46    21    44    1
    47    22    45    1
    48    23    46    1
    49    23    47    1
    50    24    48    1
    51    24    49    1
    52    24    50    1
    53    25    51    1
    54    25    52    1
@<TRIPOS>SUBSTRUCTURE
     1 RES1        1 GROUP             0 ****  ****    0  
@<TRIPOS>MOLECULE
3R8U:A:Z31465
    37    39     1     0     0
SMALL
NO_CHARGES
****
Generated from the CSD

@<TRIPOS>ATOM
     1 C1      31.8499   8.2381  64.8500   C.3       1 RES1   0.0000
     2 C2      31.5769   7.9071  66.2609   C.2       1 RES1   0.0000
     3 C3      30.3249   7.5871  66.6899   C.2       1 RES1   0.0000
     4 N4      30.0599   6.1640  66.4879   N.2       1 RES1   0.0000
     5 C5      29.0649   5.7760  65.6279   C.2       1 RES1   0.0000
     6 S6      28.3059   6.8271  64.5210   S.3       1 RES1   0.0000
     7 C7      27.3469   5.5290  63.9590   C.2       1 RES1   0.0000
     8 C8      27.6569   4.3530  64.6720   C.2       1 RES1   0.0000
     9 N9      28.6239   4.5180  65.5969   N.2       1 RES1   0.0000
    10 N10     27.0919   3.1480  64.4900   N.pl3     1 RES1   0.0000
    11 C11     26.4399   5.6970  62.9440   C.2       1 RES1   0.0000
    12 C12     26.2459   7.0301  62.2690   C.2       1 RES1   0.0000
    13 C13     26.0579   8.2441  63.0260   C.2       1 RES1   0.0000
    14 C14     25.9069   9.5001  62.3600   C.2       1 RES1   0.0000
    15 C15     25.9409   9.5451  60.9061   C.2       1 RES1   0.0000
    16 C16     26.1199   8.3441  60.1691   C.2       1 RES1   0.0000
    17 C17     26.2739   7.0961  60.8441   C.2       1 RES1   0.0000
    18 C18     25.7269  10.7161  63.1060   C.2       1 RES1   0.0000
    19 C19     25.5849  11.9591  62.4160   C.2       1 RES1   0.0000
    20 C20     25.6199  12.0001  60.9911   C.2       1 RES1   0.0000
    21 C21     25.7959  10.8041  60.2351   C.2       1 RES1   0.0000
    22 O22     25.6969   4.6560  62.4870   O.3       1 RES1   0.0000
    23 H1      26.0308   8.2032  64.1139   H         1 RES1   0.0000
    24 H2      27.3855   2.3590  65.0569   H         1 RES1   0.0000
    25 H3      26.3713   3.0265  63.7855   H         1 RES1   0.0000
    26 H4      32.3969   7.9189  66.9774   H         1 RES1   0.0000
    27 H5      31.2603   9.1066  64.5603   H         1 RES1   0.0000
    28 H6      32.9088   8.4610  64.7278   H         1 RES1   0.0000
    29 H7      31.5822   7.3911  64.2201   H         1 RES1   0.0000
    30 H8      29.6187   8.2937  67.1235   H         1 RES1   0.0000
    31 H9      26.1398   8.3758  59.0807   H         1 RES1   0.0000
    32 H10     25.6989  10.6897  64.1943   H         1 RES1   0.0000
    33 H11     25.4492  12.8800  62.9812   H         1 RES1   0.0000
    34 H12     25.1465   4.2914  63.2287   H         1 RES1   0.0000
    35 H13     25.8202  10.8468  59.1472   H         1 RES1   0.0000
    36 H14     25.5112  12.9533  60.4758   H         1 RES1   0.0000
    37 H15     26.4143   6.1844  60.2653   H         1 RES1   0.0000
@<TRIPOS>BOND
     1     1     2    1
     2     2     3    2
     3     3     4    1
     4     4     5    2
     5     5     6    1
     6     5     9    1
     7     6     7    1
     8     7     8    1
     9     7    11    2
    10     8     9    2
    11     8    10    1
    12    11    12    1
    13    11    22    1
    14    12    13    2
    15    12    17    1
    16    13    14    1
    17    14    15    2
    18    14    18    1
    19    15    16    1
    20    15    21    1
    21    16    17    2
    22    18    19    2
    23    19    20    1
    24    20    21    2
    25    13    23    1
    26    10    24    1
    27    10    25    1
    28     2    26    1
    29     1    27    1
    30     1    28    1
    31     1    29    1
    32     3    30    1
    33    16    31    1
    34    18    32    1
    35    19    33    1
    36    22    34    1
    37    21    35    1
    38    20    36    1
    39    17    37    1
@<TRIPOS>SUBSTRUCTURE
     1 RES1        1 GROUP             0 ****  ****    0  
@<TRIPOS>MOLECULE
2WEV:A:CK71297
    35    37     1     0     0
SMALL
USER_CHARGES
****
Generated from the CSD

@<TRIPOS>ATOM
     1 N1      24.6736   7.9380  59.4092   N.pl3     1 RES1   0.0000
     2 C2      24.8116   7.1210  60.4662   C.2       1 RES1   0.0000
     3 N3      23.9726   6.1360  60.6643   N.2       1 RES1   0.0000
     4 C4      24.2786   5.4570  61.7473   C.2       1 RES1   0.0000
     5 C5      23.4226   4.2970  62.1223   C.3       1 RES1   0.0000
     6 S6      25.9956   7.2460  61.5753   S.3       1 RES1   0.0000
     7 C7      25.3766   5.9440  62.3353   C.2       1 RES1   0.0000
     8 C8      26.2006   5.2870  63.4074   C.2       1 RES1   0.0000
     9 N9      27.2077   6.0230  63.8994   N.2       1 RES1   0.0000
    10 C10     26.0396   3.9660  63.8404   C.2       1 RES1   0.0000
    11 C11     26.9727   3.4480  64.7415   C.2       1 RES1   0.0000
    12 N12     27.9727   4.2290  65.2065   N.2       1 RES1   0.0000
    13 C13     28.0877   5.5000  64.7675   C.2       1 RES1   0.0000
    14 N14     29.0187   6.2890  65.3615   N.pl3     1 RES1   0.0000
    15 C15     29.5697   7.4110  64.8555   C.2       1 RES1   0.0000
    16 C16     30.7397   7.8510  65.4205   C.2       1 RES1   0.0000
    17 C17     28.9957   8.1500  63.8154   C.2       1 RES1   0.0000
    18 C18     29.5987   9.3211  63.3564   C.2       1 RES1   0.0000
    19 N19     28.8677  10.1661  62.5604   N.pl3     1 RES1   1.0000
    20 O20     29.3807  11.2201  62.2153   O.3       1 RES1  -1.0000
    21 O21     27.6347  10.1171  62.5614   O.2       1 RES1   0.0000
    22 C22     30.7947   9.7641  63.9254   C.2       1 RES1   0.0000
    23 C23     31.3488   9.0211  64.9545   C.2       1 RES1   0.0000
    24 H1      31.2797  10.6715  63.5686   H         1 RES1   0.0000
    25 H2      28.0681   7.8072  63.3592   H         1 RES1   0.0000
    26 H3      31.1955   7.2881  66.2337   H         1 RES1   0.0000
    27 H4      29.3333   6.0046  66.2836   H         1 RES1   0.0000
    28 H5      26.8942   2.4127  65.0700   H         1 RES1   0.0000
    29 H6      25.2091   3.3582  63.4843   H         1 RES1   0.0000
    30 H7      23.4357   3.5616  61.3192   H         1 RES1   0.0000
    31 H8      23.8051   3.8439  63.0357   H         1 RES1   0.0000
    32 H9      22.4012   4.6375  62.2861   H         1 RES1   0.0000
    33 H10     25.3306   8.6984  59.2663   H         1 RES1   0.0000
    34 H11     23.9123   7.7951  58.7533   H         1 RES1   0.0000
    35 H12     32.2793   9.3551  65.4111   H         1 RES1   0.0000
@<TRIPOS>BOND
     1     1     2    1
     2     2     3    2
     3     2     6    1
     4     3     4    1
     5     4     5    1
     6     4     7    2
     7     6     7    1
     8     7     8    1
     9     8     9    2
    10     8    10    1
    11     9    13    1
    12    10    11    2
    13    11    12    1
    14    12    13    2
    15    13    14    1
    16    14    15    1
    17    15    16    2
    18    15    17    1
    19    16    23    1
    20    17    18    2
    21    18    19    1
    22    18    22    1
    23    19    20    1
    24    19    21    2
    25    22    23    2
    26    22    24    1
    27    17    25    1
    28    16    26    1
    29    14    27    1
    30    11    28    1
    31    10    29    1
    32     5    30    1
    33     5    31    1
    34     5    32    1
    35     1    33    1
    36     1    34    1
    37    23    35    1
@<TRIPOS>SUBSTRUCTURE
     1 RES1        1 GROUP             0 ****  ****    0  
@<TRIPOS>MOLECULE
3R7U:A:X96523
    36    37     1     0     0
SMALL
USER_CHARGES
****
Generated from the CSD

@<TRIPOS>ATOM
     1 C1      26.1262   7.6903  63.4619   C.2       1 RES1   0.0000
     2 N2      24.8642   8.0853  63.0309   N.pl3     1 RES1   1.0000
     3 O3      24.6682   9.2923  62.4839   O.3       1 RES1  -1.0000
     4 C4      26.3272   6.4042  64.0449   C.2       1 RES1   0.0000
     5 N5      26.8782   3.6091  64.6579   N.am      1 RES1   0.0000
     6 O6      23.8111   7.2722  63.1479   O.2       1 RES1   0.0000
     7 C7      27.6182   5.9732  64.4929   C.2       1 RES1   0.0000
     8 N8      29.9752   6.4562  64.7599   N.pl3     1 RES1   0.0000
     9 O9      28.5982   4.3321  66.0200   O.2       1 RES1   0.0000
    10 C10     28.7722   6.8552  64.3549   C.2       1 RES1   0.0000
    11 N11     33.5652  11.4244  68.9771   N.2       1 RES1   0.0000
    12 C12     28.5332   8.1633  63.7569   C.2       1 RES1   0.0000
    13 C13     27.2452   8.5563  63.3299   C.2       1 RES1   0.0000
    14 C14     27.6962   4.5992  65.0779   C.2       1 RES1   0.0000
    15 C15     31.2642   7.1892  64.6509   C.3       1 RES1   0.0000
    16 C16     31.4842   8.2213  65.7310   C.2       1 RES1   0.0000
    17 C17     31.9922   9.5103  65.3770   C.2       1 RES1   0.0000
    18 C18     32.2072  10.4994  66.3680   C.2       1 RES1   0.0000
    19 C19     31.9212  10.2283  67.7480   C.2       1 RES1   0.0000
    20 C20     31.4122   8.9263  68.0980   C.2       1 RES1   0.0000
    21 C21     31.1972   7.9383  67.1000   C.2       1 RES1   0.0000
    22 C22     32.1452  11.2304  68.6771   C.2       1 RES1   0.0000
    23 H1      29.3670   8.8534  63.6366   H         1 RES1   0.0000
    24 H2      25.4771   5.7321  64.1524   H         1 RES1   0.0000
    25 H3      31.3484  11.8133  69.1367   H         1 RES1   0.0000
    26 H4      30.8113   6.9596  67.3812   H         1 RES1   0.0000
    27 H5      31.1899   8.6972  69.1392   H         1 RES1   0.0000
    28 H6      32.5936  11.4759  66.0796   H         1 RES1   0.0000
    29 H7      32.2161   9.7338  64.3350   H         1 RES1   0.0000
    30 H8      31.2892   7.6940  63.6863   H         1 RES1   0.0000
    31 H9      32.0747   6.4637  64.7020   H         1 RES1   0.0000
    32 H10     27.1070   9.5431  62.8906   H         1 RES1   0.0000
    33 H11     33.8505  12.1332  69.6453   H         1 RES1   0.0000
    34 H12     30.0181   5.5407  65.1960   H         1 RES1   0.0000
    35 H13     26.9487   2.6838  65.0691   H         1 RES1   0.0000
    36 H14     26.1933   3.7906  63.9312   H         1 RES1   0.0000
@<TRIPOS>BOND
     1     1     2    1
     2     1     4    2
     3     1    13    1
     4     2     3    1
     5     2     6    2
     6     4     7    1
     7     5    14   am
     8     7    10    2
     9     7    14    1
    10     8    10    1
    11     8    15    1
    12     9    14    2
    13    10    12    1
    14    11    22    2
    15    12    13    2
    16    15    16    1
    17    16    17    2
    18    16    21    1
    19    17    18    1
    20    18    19    2
    21    19    20    1
    22    19    22    1
    23    20    21    2
    24    12    23    1
    25     4    24    1
    26    22    25    1
    27    21    26    1
    28    20    27    1
    29    18    28    1
    30    17    29    1
    31    15    30    1
    32    15    31    1
    33    13    32    1
    34    11    33    1
    35     8    34    1
    36     5    35    1
    37     5    36    1
@<TRIPOS>SUBSTRUCTURE
     1 RES1        1 GROUP             0 ****  ****    0  
@<TRIPOS>MOLECULE
3IG7:A:EFP999
    47    49     1     0     0
SMALL
NO_CHARGES
****
Generated from the CSD

@<TRIPOS>ATOM
     1 C1      25.3645   4.3271  63.7460   C.3       1 RES1   0.0000
     2 N2      26.7096   4.4241  64.2810   N.pl3     1 RES1   0.0000
     3 C3      27.5056   5.5501  64.1600   C.2       1 RES1   0.0000
     4 C4      28.6696   5.2231  64.8569   C.2       1 RES1   0.0000
     5 N5      29.8296   5.9691  64.9759   N.am      1 RES1   0.0000
     6 C6      30.1106   7.2322  64.4809   C.2       1 RES1   0.0000
     7 C7      31.5407   7.6912  64.7399   C.3       1 RES1   0.0000
     8 C8      31.5637   8.7662  65.7809   C.2       1 RES1   0.0000
     9 C9      31.8807   8.3562  67.0829   C.2       1 RES1   0.0000
    10 C10     31.8947   9.2612  68.1308   C.2       1 RES1   0.0000
    11 C11     31.6067  10.6082  67.8838   C.2       1 RES1   0.0000
    12 O12     31.6177  11.5442  68.8818   O.3       1 RES1   0.0000
    13 C13     32.9027  11.7753  69.4728   C.3       1 RES1   0.0000
    14 C14     31.3127  11.0222  66.5869   C.2       1 RES1   0.0000
    15 C15     31.2667  10.1022  65.5169   C.2       1 RES1   0.0000
    16 O16     29.3716   8.0302  63.8870   O.2       1 RES1   0.0000
    17 N17     28.5806   3.9211  65.3139   N.2       1 RES1   0.0000
    18 C18     27.3866   3.4701  64.9629   C.2       1 RES1   0.0000
    19 C19     25.3615   4.5921  62.2250   C.3       1 RES1   0.0000
    20 C20     23.9645   5.2731  62.4430   C.3       1 RES1   0.0000
    21 N21     23.8905   6.5621  61.6960   N.am      1 RES1   0.0000
    22 C22     23.0255   6.6291  60.6161   C.2       1 RES1   0.0000
    23 C23     22.7415   8.0392  60.1371   C.3       1 RES1   0.0000
    24 O24     22.5645   5.6191  60.0721   O.2       1 RES1   0.0000
    25 C25     24.3815   5.5001  63.9350   C.3       1 RES1   0.0000
    26 H1      23.6730   8.5132  59.8314   H         1 RES1   0.0000
    27 H2      22.0572   8.0041  59.2907   H         1 RES1   0.0000
    28 H3      22.2903   8.6131  60.9452   H         1 RES1   0.0000
    29 H4      25.3429   3.6974  61.6044   H         1 RES1   0.0000
    30 H5      26.1470   5.2603  61.8751   H         1 RES1   0.0000
    31 H6      23.1086   4.6145  62.3032   H         1 RES1   0.0000
    32 H7      27.0042   2.4760  65.1897   H         1 RES1   0.0000
    33 H8      24.8508   6.4618  64.1373   H         1 RES1   0.0000
    34 H9      23.5913   5.3216  64.6627   H         1 RES1   0.0000
    35 H10     24.4536   7.3612  61.9691   H         1 RES1   0.0000
    36 H11     32.1194   7.3109  67.2733   H         1 RES1   0.0000
    37 H12     31.1145  12.0756  66.3945   H         1 RES1   0.0000
    38 H13     32.1283   8.9269  69.1406   H         1 RES1   0.0000
    39 H14     33.5966  12.1223  68.7086   H         1 RES1   0.0000
    40 H15     32.8133  12.5308  70.2520   H         1 RES1   0.0000
    41 H16     33.2746  10.8484  69.9069   H         1 RES1   0.0000
    42 H17     24.9024   3.3714  63.9891   H         1 RES1   0.0000
    43 H18     27.2760   6.4789  63.6398   H         1 RES1   0.0000
    44 H19     31.0058  10.4281  64.5111   H         1 RES1   0.0000
    45 H20     30.5796   5.5289  65.4993   H         1 RES1   0.0000
    46 H21     31.9663   8.0781  63.8152   H         1 RES1   0.0000
    47 H22     32.1322   6.8446  65.0854   H         1 RES1   0.0000
@<TRIPOS>BOND
     1     1     2    1
     2     1    19    1
     3     1    25    1
     4     2     3    1
     5     2    18    1
     6     3     4    2
     7     4     5    1
     8     4    17    1
     9     5     6   am
    10     6     7    1
    11     6    16    2
    12     7     8    1
    13     8     9    2
    14     8    15    1
    15     9    10    1
    16    10    11    2
    17    11    12    1
    18    11    14    1
    19    12    13    1
    20    14    15    2
    21    17    18    2
    22    19    20    1
    23    20    21    1
    24    20    25    1
    25    21    22   am
    26    22    23    1
    27    22    24    2
    28    23    26    1
    29    23    27    1
    30    23    28    1
    31    19    29    1
    32    19    30    1
    33    20    31    1
    34    18    32    1
    35    25    33    1
    36    25    34    1
    37    21    35    1
    38     9    36    1
    39    14    37    1
    40    10    38    1
    41    13    39    1
    42    13    40    1
    43    13    41    1
    44     1    42    1
    45     3    43    1
    46    15    44    1
    47     5    45    1
    48     7    46    1
    49     7    47    1
@<TRIPOS>SUBSTRUCTURE
     1 RES1        1 GROUP             0 ****  ****    0  
@<TRIPOS>MOLECULE
3R7V:A:Z02490
    32    33     1     0     0
SMALL
USER_CHARGES
****
Generated from the CSD

@<TRIPOS>ATOM
     1 N1      25.0932   8.1071  63.1191   N.pl3     1 RES1   1.0000
     2 N2      26.9673   3.7270  64.6890   N.am      1 RES1   0.0000
     3 N3      29.9843   6.5731  65.0790   N.pl3     1 RES1   0.0000
     4 N4      32.4193   9.3511  65.7750   N.2       1 RES1   0.0000
     5 C5      26.4353   6.4381  64.1251   C.2       1 RES1   0.0000
     6 C6      27.7013   6.0111  64.6420   C.2       1 RES1   0.0000
     7 C7      28.8213   6.9351  64.6130   C.2       1 RES1   0.0000
     8 C8      28.6183   8.2551  64.0611   C.2       1 RES1   0.0000
     9 C9      27.3503   8.6491  63.5561   C.2       1 RES1   0.0000
    10 C10     26.2473   7.7471  63.5821   C.2       1 RES1   0.0000
    11 C11     27.8083   4.7171  65.1480   C.2       1 RES1   0.0000
    12 C12     31.2583   7.3451  64.8620   C.3       1 RES1   0.0000
    13 C13     31.5733   8.2861  66.0200   C.2       1 RES1   0.0000
    14 C14     32.7033  10.2031  66.8210   C.2       1 RES1   0.0000
    15 C15     32.1733  10.0401  68.1210   C.2       1 RES1   0.0000
    16 C16     31.3103   8.9441  68.3450   C.2       1 RES1   0.0000
    17 C17     30.9993   8.0481  67.2910   C.2       1 RES1   0.0000
    18 O18     28.6343   4.4290  65.9790   O.2       1 RES1   0.0000
    19 O19     24.1032   7.2281  62.9651   O.3       1 RES1  -1.0000
    20 O20     24.8722   9.3631  62.7901   O.2       1 RES1   0.0000
    21 H1      27.2200   9.6493  63.1455   H         1 RES1   0.0000
    22 H2      29.4495   8.9581  64.0319   H         1 RES1   0.0000
    23 H3      25.5938   5.7472  64.1464   H         1 RES1   0.0000
    24 H4      31.1598   7.9331  63.9507   H         1 RES1   0.0000
    25 H5      32.0802   6.6393  64.7516   H         1 RES1   0.0000
    26 H6      33.3698  11.0443  66.6362   H         1 RES1   0.0000
    27 H7      30.0336   5.7171  65.6221   H         1 RES1   0.0000
    28 H8      27.0448   2.7843  65.0572   H         1 RES1   0.0000
    29 H9      26.2703   3.9403  63.9827   H         1 RES1   0.0000
    30 H10     32.4214  10.7349  68.9220   H         1 RES1   0.0000
    31 H11     30.3366   7.1997  67.4554   H         1 RES1   0.0000
    32 H12     30.8813   8.7865  69.3334   H         1 RES1   0.0000
@<TRIPOS>BOND
     1     1    10    1
     2     1    19    1
     3     1    20    2
     4     2    11   am
     5     3     7    1
     6     3    12    1
     7     4    13    2
     8     4    14    1
     9     5     6    2
    10     5    10    1
    11     6     7    1
    12     6    11    1
    13     7     8    2
    14     8     9    1
    15     9    10    2
    16    11    18    2
    17    12    13    1
    18    13    17    1
    19    14    15    2
    20    15    16    1
    21    16    17    2
    22     9    21    1
    23     8    22    1
    24     5    23    1
    25    12    24    1
    26    12    25    1
    27    14    26    1
    28     3    27    1
    29     2    28    1
    30     2    29    1
    31    15    30    1
    32    17    31    1
    33    16    32    1
@<TRIPOS>SUBSTRUCTURE
     1 RES1        1 GROUP             0 ****  ****    0  
@<TRIPOS>MOLECULE
3QX4:A:X4B454
    32    33     1     0     0
SMALL
USER_CHARGES
****
Generated from the CSD

@<TRIPOS>ATOM
     1 N1      26.8838   3.2750  64.6124   N.am      1 RES1   0.0000
     2 N2      29.5058   6.3989  65.0434   N.pl3     1 RES1   0.0000
     3 N3      31.4268  10.5809  66.3634   N.2       1 RES1   0.0000
     4 N4      24.3778   7.3699  63.2974   N.pl3     1 RES1   1.0000
     5 C5      25.9718   5.8869  64.1824   C.2       1 RES1   0.0000
     6 C6      27.2988   5.6069  64.6464   C.2       1 RES1   0.0000
     7 C7      28.2898   6.6429  64.6284   C.2       1 RES1   0.0000
     8 C8      27.9168   7.9479  64.1524   C.2       1 RES1   0.0000
     9 C9      26.5948   8.2239  63.7004   C.2       1 RES1   0.0000
    10 C10     25.5968   7.1789  63.7034   C.2       1 RES1   0.0000
    11 C11     27.5828   4.3429  65.1044   C.2       1 RES1   0.0000
    12 C12     30.6868   7.2299  64.6754   C.3       1 RES1   0.0000
    13 C13     30.9648   8.2529  65.7514   C.2       1 RES1   0.0000
    14 C14     31.1698   9.6079  65.4224   C.2       1 RES1   0.0000
    15 C15     31.4848  10.1999  67.6865   C.2       1 RES1   0.0000
    16 C16     31.2928   8.8749  68.1155   C.2       1 RES1   0.0000
    17 C17     31.0288   7.8929  67.1245   C.2       1 RES1   0.0000
    18 O18     28.4318   4.1609  65.9674   O.2       1 RES1   0.0000
    19 O19     23.4018   6.6289  63.7624   O.3       1 RES1  -1.0000
    20 O20     24.0798   8.2749  62.3964   O.2       1 RES1   0.0000
    21 Cl21    26.2468   9.8209  63.1694   Cl        1 RES1   0.0000
    22 H1      30.4864   7.7425  63.7357   H         1 RES1   0.0000
    23 H2      31.5570   6.5856  64.5590   H         1 RES1   0.0000
    24 H3      31.3447   8.6110  69.1708   H         1 RES1   0.0000
    25 H4      27.0875   2.3381  64.9455   H         1 RES1   0.0000
    26 H5      26.1614   3.4195  63.9142   H         1 RES1   0.0000
    27 H6      29.6534   5.5987  65.6501   H         1 RES1   0.0000
    28 H7      28.6616   8.7423  64.1373   H         1 RES1   0.0000
    29 H8      25.2282   5.0914  64.1955   H         1 RES1   0.0000
    30 H9      30.8742   6.8559  67.4190   H         1 RES1   0.0000
    31 H10     31.6894  10.9625  68.4365   H         1 RES1   0.0000
    32 H11     31.1228   9.8998  64.3743   H         1 RES1   0.0000
@<TRIPOS>BOND
     1     1    11   am
     2     2     7    1
     3     2    12    1
     4     3    14    2
     5     3    15    1
     6     4    10    1
     7     4    19    1
     8     4    20    2
     9     5     6    2
    10     5    10    1
    11     6     7    1
    12     6    11    1
    13     7     8    2
    14     8     9    1
    15     9    10    2
    16     9    21    1
    17    11    18    2
    18    12    13    1
    19    13    14    1
    20    13    17    2
    21    15    16    2
    22    16    17    1
    23    12    22    1
    24    12    23    1
    25    16    24    1
    26     1    25    1
    27     1    26    1
    28     2    27    1
    29     8    28    1
    30     5    29    1
    31    17    30    1
    32    15    31    1
    33    14    32    1
@<TRIPOS>SUBSTRUCTURE
     1 RES1        1 GROUP             0 ****  ****    0  
@<TRIPOS>MOLECULE
3R1Q:A:X75616
    32    33     1     0     0
SMALL
USER_CHARGES
****
Generated from the CSD

@<TRIPOS>ATOM
     1 N1      29.4193   6.4479  65.1888   N.pl3     1 RES1   0.0000
     2 N2      26.8703   3.2650  64.5878   N.am      1 RES1   0.0000
     3 N3      31.3943   8.7929  68.1538   N.2       1 RES1   0.0000
     4 N4      24.4623   7.4139  63.1117   N.pl3     1 RES1   1.0000
     5 C5      25.9753   5.8999  64.0738   C.2       1 RES1   0.0000
     6 C6      27.2733   5.6209  64.6278   C.2       1 RES1   0.0000
     7 C7      28.2423   6.6769  64.7048   C.2       1 RES1   0.0000
     8 C8      27.8903   7.9839  64.2488   C.2       1 RES1   0.0000
     9 C9      26.6133   8.2639  63.7138   C.2       1 RES1   0.0000
    10 C10     25.6313   7.2099  63.6088   C.2       1 RES1   0.0000
    11 C11     27.5613   4.3399  65.0778   C.2       1 RES1   0.0000
    12 C12     30.6353   7.1829  64.7588   C.3       1 RES1   0.0000
    13 C13     30.9993   8.2129  65.8038   C.2       1 RES1   0.0000
    14 C14     31.0693   7.8799  67.1708   C.2       1 RES1   0.0000
    15 C15     31.6593  10.0819  67.7608   C.2       1 RES1   0.0000
    16 C16     31.6143  10.5099  66.4218   C.2       1 RES1   0.0000
    17 C17     31.2763   9.5519  65.4358   C.2       1 RES1   0.0000
    18 O18     28.4153   4.1589  65.9328   O.2       1 RES1   0.0000
    19 O19     23.3962   6.8749  63.6508   O.3       1 RES1  -1.0000
    20 O20     24.3143   8.1279  62.0157   O.2       1 RES1   0.0000
    21 Cl21    26.2973   9.8799  63.2078   Cl        1 RES1   0.0000
    22 Cl22    32.0663  11.2338  68.9708   Cl        1 RES1   0.0000
    23 H1      29.5167   5.7291  65.8988   H         1 RES1   0.0000
    24 H2      27.0843   2.3300  64.9197   H         1 RES1   0.0000
    25 H3      26.1439   3.4028  63.8924   H         1 RES1   0.0000
    26 H4      31.2291   9.8464  64.3884   H         1 RES1   0.0000
    27 H5      31.8319  11.5425  66.1528   H         1 RES1   0.0000
    28 H6      30.8569   6.8534  67.4661   H         1 RES1   0.0000
    29 H7      30.4414   7.6814  63.8102   H         1 RES1   0.0000
    30 H8      31.4595   6.4814  64.6384   H         1 RES1   0.0000
    31 H9      28.6251   8.7849  64.3153   H         1 RES1   0.0000
    32 H10     25.2401   5.0994  64.0067   H         1 RES1   0.0000
@<TRIPOS>BOND
     1     1     7    1
     2     1    12    1
     3     2    11   am
     4     3    14    2
     5     3    15    1
     6     4    10    1
     7     4    19    1
     8     4    20    2
     9     5     6    2
    10     5    10    1
    11     6     7    1
    12     6    11    1
    13     7     8    2
    14     8     9    1
    15     9    10    2
    16     9    21    1
    17    11    18    2
    18    12    13    1
    19    13    14    1
    20    13    17    2
    21    15    16    2
    22    15    22    1
    23    16    17    1
    24     1    23    1
    25     2    24    1
    26     2    25    1
    27    17    26    1
    28    16    27    1
    29    14    28    1
    30    12    29    1
    31    12    30    1
    32     8    31    1
    33     5    32    1
@<TRIPOS>SUBSTRUCTURE
     1 RES1        1 GROUP             0 ****  ****    0  
@<TRIPOS>MOLECULE
4EK5:A:03K300
    32    34     1     0     0
SMALL
NO_CHARGES
****
Generated from the CSD

@<TRIPOS>ATOM
     1 N1      29.5587   6.2022  65.4643   N.2       1 RES1   0.0000
     2 N2      35.3508  10.7464  66.1233   N.am      1 RES1   0.0000
     3 N3      27.5237   3.5221  65.0783   N.2       1 RES1   0.0000
     4 N4      28.5297   4.1211  65.5243   N.2       1 RES1   0.0000
     5 O5      34.2818  10.8744  68.1063   O.2       1 RES1   0.0000
     6 O6      29.0887   7.9203  64.0413   O.2       1 RES1   0.0000
     7 C7      32.7758   9.7793  65.0173   C.2       1 RES1   0.0000
     8 C8      32.4608   8.8573  67.2133   C.2       1 RES1   0.0000
     9 C9      31.7088   9.0053  64.5513   C.2       1 RES1   0.0000
    10 C10     31.3957   8.0943  66.7583   C.2       1 RES1   0.0000
    11 C11     27.4106   5.5972  64.3823   C.2       1 RES1   0.0000
    12 C12     25.0666   4.5182  62.3803   C.3       1 RES1   0.0000
    13 C13     24.3166   4.9562  63.6513   C.3       1 RES1   0.0000
    14 C14     34.3368  10.4904  66.9353   C.2       1 RES1   0.0000
    15 C15     29.7977   7.3993  64.9033   C.2       1 RES1   0.0000
    16 C16     33.1778   9.6673  66.3463   C.2       1 RES1   0.0000
    17 C17     31.0027   8.1733  65.4263   C.2       1 RES1   0.0000
    18 C18     28.5257   5.3892  65.1193   C.2       1 RES1   0.0000
    19 C19     26.7856   4.4012  64.3803   C.2       1 RES1   0.0000
    20 C20     25.4526   3.9311  63.7513   C.3       1 RES1   0.0000
    21 H1      32.7376   8.8196  68.2659   H         1 RES1   0.0000
    22 H2      31.4257   9.0505  63.5007   H         1 RES1   0.0000
    23 H3      30.8672   7.4335  67.4438   H         1 RES1   0.0000
    24 H4      35.3362  10.4016  65.1688   H         1 RES1   0.0000
    25 H5      36.1428  11.2875  66.4553   H         1 RES1   0.0000
    26 H6      25.1624   2.8983  63.9387   H         1 RES1   0.0000
    27 H7      23.2857   4.6430  63.8098   H         1 RES1   0.0000
    28 H8      24.4551   5.9619  64.0454   H         1 RES1   0.0000
    29 H9      25.7371   5.2127  61.8762   H         1 RES1   0.0000
    30 H10     24.5677   3.8938  61.6407   H         1 RES1   0.0000
    31 H11     27.0902   6.5197  63.9004   H         1 RES1   0.0000
    32 H12     33.2894  10.4654  64.3455   H         1 RES1   0.0000
@<TRIPOS>BOND
     1     1    15    1
     2     1    18    2
     3     2    14   am
     4     3     4    2
     5     3    19    1
     6     4    18    1
     7     5    14    2
     8     6    15    2
     9     7     9    2
    10     7    16    1
    11     8    10    1
    12     8    16    2
    13     9    17    1
    14    10    17    2
    15    11    18    1
    16    11    19    2
    17    12    13    1
    18    12    20    1
    19    13    20    1
    20    14    16    1
    21    15    17    1
    22    19    20    1
    23     8    21    1
    24     9    22    1
    25    10    23    1
    26     2    24    1
    27     2    25    1
    28    20    26    1
    29    13    27    1
    30    13    28    1
    31    12    29    1
    32    12    30    1
    33    11    31    1
    34     7    32    1
@<TRIPOS>SUBSTRUCTURE
     1 RES1        1 GROUP             0 ****  ****    0  
@<TRIPOS>MOLECULE
3FZ1:A:B98299
    34    36     1     0     0
SMALL
NO_CHARGES
****
Generated from the CSD

@<TRIPOS>ATOM
     1 C1      26.3539   3.7209  64.1223   C.2       1 RES1   0.0000
     2 C2      25.2279   3.8879  63.3503   C.2       1 RES1   0.0000
     3 C3      26.9349   6.0429  63.8813   C.2       1 RES1   0.0000
     4 C4      25.7989   6.2329  63.0973   C.2       1 RES1   0.0000
     5 C5      25.3019   7.4199  62.4694   C.2       1 RES1   0.0000
     6 C6      27.1869   4.7799  64.3853   C.2       1 RES1   0.0000
     7 C7      24.9739   5.1429  62.8584   C.2       1 RES1   0.0000
     8 C8      24.1259   7.2479  61.7584   C.2       1 RES1   0.0000
     9 C9      23.2559   8.1069  60.9844   C.2       1 RES1   0.0000
    10 C10     25.3679   9.8468  62.2404   C.3       1 RES1   0.0000
    11 C11     24.9789   9.9178  60.7804   C.3       1 RES1   0.0000
    12 C12     28.7009   5.7679  65.7273   C.3       1 RES1   0.0000
    13 C13     26.0099   9.4678  59.7694   C.3       1 RES1   0.0000
    14 N14     25.9859   8.5858  62.6014   N.pl3     1 RES1   0.0000
    15 N15     23.7179   9.3068  60.5084   N.am      1 RES1   0.0000
    16 N16     25.3539   9.5128  58.4325   N.3       1 RES1   0.0000
    17 O17     22.0929   7.8039  60.7494   O.2       1 RES1   0.0000
    18 O18     28.3029   4.5209  65.1773   O.3       1 RES1   0.0000
    19 S19     23.6369   5.6099  61.8754   S.3       1 RES1   0.0000
    20 H1      26.5871   2.7381  64.5293   H         1 RES1   0.0000
    21 H2      24.5616   3.0533  63.1371   H         1 RES1   0.0000
    22 H3      27.6098   6.8710  64.0927   H         1 RES1   0.0000
    23 H4      24.4720   9.9799  62.8451   H         1 RES1   0.0000
    24 H5      26.0712  10.6510  62.4516   H         1 RES1   0.0000
    25 H6      24.8290  10.9774  60.5789   H         1 RES1   0.0000
    26 H7      27.8866   6.1786  66.3225   H         1 RES1   0.0000
    27 H8      29.5756   5.6231  66.3597   H         1 RES1   0.0000
    28 H9      28.9457   6.4584  64.9216   H         1 RES1   0.0000
    29 H10     26.3353   8.4529  59.9928   H         1 RES1   0.0000
    30 H11     26.8690  10.1367  59.7876   H         1 RES1   0.0000
    31 H12     26.9371   8.5743  62.9555   H         1 RES1   0.0000
    32 H13     23.0929   9.8181  59.8934   H         1 RES1   0.0000
    33 H14     25.0488  10.4609  58.2371   H         1 RES1   0.0000
    34 H15     26.0147   9.2167  57.7212   H         1 RES1   0.0000
@<TRIPOS>BOND
     1     1     2    2
     2     1     6    1
     3     2     7    1
     4     3     4    1
     5     3     6    2
     6     4     5    1
     7     4     7    2
     8     5     8    2
     9     5    14    1
    10     6    18    1
    11     7    19    1
    12     8     9    1
    13     8    19    1
    14     9    15   am
    15     9    17    2
    16    10    11    1
    17    10    14    1
    18    11    13    1
    19    11    15    1
    20    12    18    1
    21    13    16    1
    22     1    20    1
    23     2    21    1
    24     3    22    1
    25    10    23    1
    26    10    24    1
    27    11    25    1
    28    12    26    1
    29    12    27    1
    30    12    28    1
    31    13    29    1
    32    13    30    1
    33    14    31    1
    34    15    32    1
    35    16    33    1
    36    16    34    1
@<TRIPOS>SUBSTRUCTURE
     1 RES1        1 GROUP             0 ****  ****    0  
@<TRIPOS>MOLECULE
3BHV:A:VAR299
    33    36     1     0     0
SMALL
NO_CHARGES
****
Generated from the CSD

@<TRIPOS>ATOM
     1 O1      23.4674   7.0916  60.3855   O.3       1 RES1   0.0000
     2 C2      23.8994   5.9756  61.0424   C.2       1 RES1   0.0000
     3 C3      23.3464   4.7417  60.7414   C.2       1 RES1   0.0000
     4 C4      23.7974   3.5918  61.4074   C.2       1 RES1   0.0000
     5 N5      24.7513   3.5718  62.3654   N.2       1 RES1   0.0000
     6 C6      25.3553   4.7327  62.7404   C.2       1 RES1   0.0000
     7 N7      26.3223   4.8707  63.6693   N.pl3     1 RES1   0.0000
     8 C8      26.9113   3.9328  64.4383   C.2       1 RES1   0.0000
     9 N9      26.5633   2.6278  64.3543   N.pl3     1 RES1   0.0000
    10 N10     27.8753   4.3047  65.3172   N.2       1 RES1   0.0000
    11 C11     28.2462   5.5916  65.4312   C.2       1 RES1   0.0000
    12 C12     27.6463   6.5626  64.6323   C.2       1 RES1   0.0000
    13 C13     26.6563   6.1756  63.7393   C.2       1 RES1   0.0000
    14 C14     25.8363   6.9836  62.7704   C.2       1 RES1   0.0000
    15 C15     24.9563   5.9986  62.0874   C.2       1 RES1   0.0000
    16 C16     25.8813   8.4475  62.5044   C.2       1 RES1   0.0000
    17 C17     25.0113   9.0154  61.5814   C.2       1 RES1   0.0000
    18 C18     25.0743  10.3813  61.3314   C.2       1 RES1   0.0000
    19 N19     25.9743  11.1283  61.9874   N.2       1 RES1   0.0000
    20 C20     26.8163  10.5633  62.8913   C.2       1 RES1   0.0000
    21 N21     26.7723   9.2304  63.1433   N.2       1 RES1   0.0000
    22 N22     27.7253  11.3383  63.5453   N.pl3     1 RES1   0.0000
    23 H1      27.9485   7.6062  64.7070   H         1 RES1   0.0000
    24 H2      29.0155   5.8752  66.1479   H         1 RES1   0.0000
    25 H3      24.2855   8.3949  61.0578   H         1 RES1   0.0000
    26 H4      24.3996  10.8401  60.6101   H         1 RES1   0.0000
    27 H5      28.3561  10.9197  64.2214   H         1 RES1   0.0000
    28 H6      27.7720  12.3345  63.3566   H         1 RES1   0.0000
    29 H7      22.4958   7.2162  60.5483   H         1 RES1   0.0000
    30 H8      22.5629   4.6642  59.9891   H         1 RES1   0.0000
    31 H9      23.3436   2.6412  61.1310   H         1 RES1   0.0000
    32 H10     27.0221   1.9412  64.9445   H         1 RES1   0.0000
    33 H11     25.8435   2.3355  63.7011   H         1 RES1   0.0000
@<TRIPOS>BOND
     1     1     2    1
     2     2     3    2
     3     2    15    1
     4     3     4    1
     5     4     5    2
     6     5     6    1
     7     6     7    1
     8     6    15    2
     9     7     8    1
    10     7    13    1
    11     8     9    1
    12     8    10    2
    13    10    11    1
    14    11    12    2
    15    12    13    1
    16    13    14    2
    17    14    15    1
    18    14    16    1
    19    16    17    2
    20    16    21    1
    21    17    18    1
    22    18    19    2
    23    19    20    1
    24    20    21    2
    25    20    22    1
    26    12    23    1
    27    11    24    1
    28    17    25    1
    29    18    26    1
    30    22    27    1
    31    22    28    1
    32     1    29    1
    33     3    30    1
    34     4    31    1
    35     9    32    1
    36     9    33    1
@<TRIPOS>SUBSTRUCTURE
     1 RES1        1 GROUP             0 ****  ****    0  
@<TRIPOS>MOLECULE
2C5Y:A:MTW1298
    43    46     1     0     0
SMALL
USER_CHARGES
****
Generated from the CSD

@<TRIPOS>ATOM
     1 C1      26.0902  10.4842  61.0039   C.2       1 RES1   0.0000
     2 N2      25.2302  11.3802  61.4789   N.2       1 RES1   0.0000
     3 C3      24.0072  10.8702  61.3179   C.2       1 RES1   0.0000
     4 N4      24.1412   9.6832  60.7329   N.2       1 RES1   0.0000
     5 N5      25.3422   9.4862  60.5369   N.pl3     1 RES1   0.0000
     6 C6      25.8942   8.2571  59.9419   C.3       1 RES1   0.0000
     7 C7      25.5332   7.0821  60.8569   C.2       1 RES1   0.0000
     8 C8      26.3452   6.5901  61.8739   C.2       1 RES1   0.0000
     9 C9      24.2702   6.5301  60.6939   C.2       1 RES1   0.0000
    10 C10     23.8471   5.4521  61.4579   C.2       1 RES1   0.0000
    11 C11     24.6802   4.9411  62.4449   C.2       1 RES1   0.0000
    12 C12     25.9152   5.5351  62.6739   C.2       1 RES1   0.0000
    13 C13     26.7242   4.9641  63.6518   C.2       1 RES1   0.0000
    14 N14     27.6752   5.6931  64.2668   N.2       1 RES1   0.0000
    15 C15     26.5552   3.6051  63.9348   C.2       1 RES1   0.0000
    16 C16     27.4482   3.0351  64.8268   C.2       1 RES1   0.0000
    17 N17     28.3642   3.8161  65.3948   N.2       1 RES1   0.0000
    18 C18     28.5222   5.1291  65.1518   C.2       1 RES1   0.0000
    19 N19     29.4842   5.8481  65.7498   N.pl3     1 RES1   0.0000
    20 C20     29.8192   7.1191  65.4598   C.2       1 RES1   0.0000
    21 C21     29.0942   7.9411  64.5958   C.2       1 RES1   0.0000
    22 C22     30.9772   7.6691  66.0068   C.2       1 RES1   0.0000
    23 C23     31.4102   8.9531  65.6878   C.2       1 RES1   0.0000
    24 C24     30.6652   9.7562  64.8268   C.2       1 RES1   0.0000
    25 C25     29.4962   9.2432  64.2698   C.2       1 RES1   0.0000
    26 N26     28.6992  10.0332  63.5308   N.pl3     1 RES1   1.0000
    27 O27     28.8392  10.4012  62.1449   O.3       1 RES1  -1.0000
    28 O28     27.5442  10.4952  64.2148   O.2       1 RES1   0.0000
    29 H1      28.1764   7.5538  64.1560   H         1 RES1   0.0000
    30 H2      31.5626   7.0748  66.7068   H         1 RES1   0.0000
    31 H3      32.3377   9.3325  66.1142   H         1 RES1   0.0000
    32 H4      30.9916  10.7685  64.5931   H         1 RES1   0.0000
    33 H5      30.0080   5.3912  66.4895   H         1 RES1   0.0000
    34 H6      27.4020   1.9720  65.0582   H         1 RES1   0.0000
    35 H7      25.7585   3.0221  63.4752   H         1 RES1   0.0000
    36 H8      24.3676   4.0809  63.0351   H         1 RES1   0.0000
    37 H9      22.8675   5.0091  61.2848   H         1 RES1   0.0000
    38 H10     23.0701  11.3405  61.6120   H         1 RES1   0.0000
    39 H11     23.5965   6.9525  59.9499   H         1 RES1   0.0000
    40 H12     27.3248   7.0338  62.0455   H         1 RES1   0.0000
    41 H13     26.9768   8.3412  59.8586   H         1 RES1   0.0000
    42 H14     25.4652   8.1006  58.9533   H         1 RES1   0.0000
    43 H15     27.1771  10.5521  60.9980   H         1 RES1   0.0000
@<TRIPOS>BOND
     1     1     2    2
     2     1     5    1
     3     2     3    1
     4     3     4    2
     5     4     5    1
     6     5     6    1
     7     6     7    1
     8     7     8    2
     9     7     9    1
    10     8    12    1
    11     9    10    2
    12    10    11    1
    13    11    12    2
    14    12    13    1
    15    13    14    2
    16    13    15    1
    17    14    18    1
    18    15    16    2
    19    16    17    1
    20    17    18    2
    21    18    19    1
    22    19    20    1
    23    20    21    2
    24    20    22    1
    25    21    25    1
    26    22    23    2
    27    23    24    1
    28    24    25    2
    29    25    26    1
    30    26    27    1
    31    26    28    2
    32    21    29    1
    33    22    30    1
    34    23    31    1
    35    24    32    1
    36    19    33    1
    37    16    34    1
    38    15    35    1
    39    11    36    1
    40    10    37    1
    41     3    38    1
    42     9    39    1
    43     8    40    1
    44     6    41    1
    45     6    42    1
    46     1    43    1
@<TRIPOS>SUBSTRUCTURE
     1 RES1        1 GROUP             0 ****  ****    0  
@<TRIPOS>MOLECULE
6Q4H:A:HGH301
    32    34     1     0     0
SMALL
NO_CHARGES
****
Generated from the CSD

@<TRIPOS>ATOM
     1 C1      26.2740   9.4492  63.4849   C.2       1 RES1   0.0000
     2 C2      26.1810  10.7902  63.2199   C.2       1 RES1   0.0000
     3 C3      26.1170  11.2532  61.9259   C.2       1 RES1   0.0000
     4 C4      26.6010   5.1551  63.5299   C.2       1 RES1   0.0000
     5 C5      26.1050  10.3802  60.8689   C.2       1 RES1   0.0000
     6 C6      26.0910  10.8762  59.4439   C.3       1 RES1   0.0000
     7 C7      24.8640  10.6532  58.6059   C.2       1 RES1   0.0000
     8 C8      26.1840   9.0251  61.1249   C.2       1 RES1   0.0000
     9 C9      25.8860   3.1831  63.3659   C.2       1 RES1   0.0000
    10 C10     27.3280   4.3711  64.4449   C.2       1 RES1   0.0000
    11 N11     29.4541   6.6941  65.8889   N.pl3     1 RES1   0.0000
    12 N12     27.8600   6.9981  64.2529   N.2       1 RES1   0.0000
    13 C13     26.2570   8.5871  62.4289   C.2       1 RES1   0.0000
    14 N14     25.7370   4.3641  62.8219   N.2       1 RES1   0.0000
    15 C15     28.5090   6.1551  65.0999   C.2       1 RES1   0.0000
    16 C16     26.9220   6.4871  63.4619   C.2       1 RES1   0.0000
    17 O17     26.1860   7.2081  62.5619   O.3       1 RES1   0.0000
    18 O18     23.9490   9.9052  58.9919   O.3       1 RES1   0.0000
    19 O19     24.7800  11.2672  57.5379   O.2       1 RES1   0.0000
    20 N20     26.8660   3.1021  64.3149   N.pl3     1 RES1   0.0000
    21 N21     28.2830   4.8411  65.2549   N.2       1 RES1   0.0000
    22 H1      23.5824  10.2461  59.8495   H         1 RES1   0.0000
    23 H2      26.3588   9.0834  64.5071   H         1 RES1   0.0000
    24 H3      26.1574  11.4999  64.0455   H         1 RES1   0.0000
    25 H4      26.0754  12.3253  61.7392   H         1 RES1   0.0000
    26 H5      26.9204  10.3928  58.9298   H         1 RES1   0.0000
    27 H6      26.2624  11.9511  59.4787   H         1 RES1   0.0000
    28 H7      26.1885   8.3099  60.3037   H         1 RES1   0.0000
    29 H8      25.2740   2.3279  63.0831   H         1 RES1   0.0000
    30 H9      27.1792   2.2749  64.8128   H         1 RES1   0.0000
    31 H10     29.9677   6.1076  66.5389   H         1 RES1   0.0000
    32 H11     29.6543   7.6877  65.8348   H         1 RES1   0.0000
@<TRIPOS>BOND
     1     1     2    2
     2     1    13    1
     3     2     3    1
     4     3     5    2
     5     4    10    2
     6     4    14    1
     7     4    16    1
     8     5     6    1
     9     5     8    1
    10     6     7    1
    11     7    18    1
    12     7    19    2
    13     8    13    2
    14     9    14    2
    15     9    20    1
    16    10    20    1
    17    10    21    1
    18    11    15    1
    19    12    15    1
    20    12    16    2
    21    13    17    1
    22    15    21    2
    23    16    17    1
    24    18    22    1
    25     1    23    1
    26     2    24    1
    27     3    25    1
    28     6    26    1
    29     6    27    1
    30     8    28    1
    31     9    29    1
    32    20    30    1
    33    11    31    1
    34    11    32    1
@<TRIPOS>SUBSTRUCTURE
     1 RES1        1 GROUP             0 ****  ****    0  
@<TRIPOS>MOLECULE
2C69:A:CT81299
    37    40     1     0     0
SMALL
NO_CHARGES
****
Generated from the CSD

@<TRIPOS>ATOM
     1 Br1     25.7315  12.3857  62.2449   Br        1 RES1   0.0000
     2 C2      25.9355  10.6307  61.5659   C.2       1 RES1   0.0000
     3 C3      26.4195   9.6288  62.3989   C.2       1 RES1   0.0000
     4 C4      26.5795   8.3298  61.9179   C.2       1 RES1   0.0000
     5 C5      26.2225   8.0208  60.5809   C.2       1 RES1   0.0000
     6 C6      25.7215   9.0308  59.7429   C.2       1 RES1   0.0000
     7 C7      25.5815  10.3388  60.2379   C.2       1 RES1   0.0000
     8 C8      27.0885   7.2568  62.8249   C.2       1 RES1   0.0000
     9 C9      28.2724   7.4328  63.5609   C.2       1 RES1   0.0000
    10 C10     28.7164   6.3698  64.3789   C.2       1 RES1   0.0000
    11 N11     27.9724   5.2439  64.4479   N.pl3     1 RES1   0.0000
    12 N12     28.1884   4.1559  65.1459   N.2       1 RES1   0.0000
    13 C13     27.1825   3.2849  64.8629   C.2       1 RES1   0.0000
    14 C14     26.8535   5.1109  63.7629   C.2       1 RES1   0.0000
    15 N15     26.4055   6.0809  62.9289   N.2       1 RES1   0.0000
    16 N16     29.9164   6.4658  65.1119   N.pl3     1 RES1   0.0000
    17 C17     31.0234   7.2648  64.6039   C.3       1 RES1   0.0000
    18 C18     31.3034   8.3818  65.5779   C.2       1 RES1   0.0000
    19 C19     31.3044   8.1308  66.9439   C.2       1 RES1   0.0000
    20 C20     31.5374   9.1678  67.8359   C.2       1 RES1   0.0000
    21 N21     31.7704  10.4187  67.3749   N.2       1 RES1   0.0000
    22 C22     31.7884  10.6777  66.0329   C.2       1 RES1   0.0000
    23 C23     31.5404   9.6618  65.1169   C.2       1 RES1   0.0000
    24 N24     26.3375   3.9059  63.9999   N.2       1 RES1   0.0000
    25 H1      31.9983  11.6860  65.6791   H         1 RES1   0.0000
    26 H2      26.6750   9.8594  63.4321   H         1 RES1   0.0000
    27 H3      25.1982  11.1269  59.5914   H         1 RES1   0.0000
    28 H4      25.4431   8.8016  58.7153   H         1 RES1   0.0000
    29 H5      30.0095   5.9767  65.9964   H         1 RES1   0.0000
    30 H6      26.3362   7.0050  60.2053   H         1 RES1   0.0000
    31 H7      30.7582   7.6828  63.6339   H         1 RES1   0.0000
    32 H8      31.9088   6.6393  64.4999   H         1 RES1   0.0000
    33 H9      27.0746   2.2751  65.2561   H         1 RES1   0.0000
    34 H10     31.1228   7.1228  67.3139   H         1 RES1   0.0000
    35 H11     31.5328   8.9750  68.9077   H         1 RES1   0.0000
    36 H12     28.8332   8.3644  63.5024   H         1 RES1   0.0000
    37 H13     31.5331   9.8729  64.0486   H         1 RES1   0.0000
@<TRIPOS>BOND
     1     1     2    1
     2     2     3    2
     3     2     7    1
     4     3     4    1
     5     4     5    2
     6     4     8    1
     7     5     6    1
     8     6     7    2
     9     8     9    1
    10     8    15    2
    11     9    10    2
    12    10    11    1
    13    10    16    1
    14    11    12    1
    15    11    14    1
    16    12    13    2
    17    13    24    1
    18    14    15    1
    19    14    24    2
    20    16    17    1
    21    17    18    1
    22    18    19    2
    23    18    23    1
    24    19    20    1
    25    20    21    2
    26    21    22    1
    27    22    23    2
    28    22    25    1
    29     3    26    1
    30     7    27    1
    31     6    28    1
    32    16    29    1
    33     5    30    1
    34    17    31    1
    35    17    32    1
    36    13    33    1
    37    19    34    1
    38    20    35    1
    39     9    36    1
    40    23    37    1
@<TRIPOS>SUBSTRUCTURE
     1 RES1        1 GROUP             0 ****  ****    0  
@<TRIPOS>MOLECULE
6Q4G:A:HJK301
    62    66     1     0     0
SMALL
NO_CHARGES
****
Generated from the CSD

@<TRIPOS>ATOM
     1 C1      26.6995   9.3070  63.7244   C.2       1 RES1   0.0000
     2 C2      26.2545  10.4160  63.0143   C.2       1 RES1   0.0000
     3 C3      25.9805  10.2900  61.6623   C.2       1 RES1   0.0000
     4 C4      26.8715   5.5290  63.6744   C.2       1 RES1   0.0000
     5 C5      26.0005   9.0550  61.0273   C.2       1 RES1   0.0000
     6 C6      25.7125   8.8770  59.5413   C.3       1 RES1   0.0000
     7 C7      24.6735   9.7690  58.8493   C.2       1 RES1   0.0000
     8 C8      26.4795   7.9830  61.7413   C.2       1 RES1   0.0000
     9 C9      25.9865   3.6330  63.2354   C.2       1 RES1   0.0000
    10 C10     27.4815   4.5740  64.4964   C.2       1 RES1   0.0000
    11 N11     29.6485   6.5300  66.3984   N.pl3     1 RES1   0.0000
    12 N12     28.2055   7.1430  64.7514   N.2       1 RES1   0.0000
    13 C13     26.8145   8.0720  63.0904   C.2       1 RES1   0.0000
    14 N14     25.9375   4.8940  62.8653   N.2       1 RES1   0.0000
    15 C15     28.7435   6.1450  65.4864   C.2       1 RES1   0.0000
    16 C16     27.2865   6.8700  63.8114   C.2       1 RES1   0.0000
    17 O17     24.7565   9.9050  57.6523   O.2       1 RES1   0.0000
    18 O18     23.6574  10.1110  59.5143   O.3       1 RES1   0.0000
    19 N19     26.9135   3.3750  64.2004   N.pl3     1 RES1   0.0000
    20 N20     28.4225   4.8310  65.4064   N.2       1 RES1   0.0000
    21 C21     26.7365   9.2170  63.4254   C.2       1 RES1   0.0000
    22 C22     26.2305  10.2450  62.6473   C.2       1 RES1   0.0000
    23 C23     25.7685   9.9700  61.3743   C.2       1 RES1   0.0000
    24 C24     26.8885   5.4730  63.6514   C.2       1 RES1   0.0000
    25 C25     25.7545   8.6790  60.8723   C.2       1 RES1   0.0000
    26 C26     25.1625   8.3610  59.5283   C.3       1 RES1   0.0000
    27 C27     23.6844   8.7610  59.5393   C.2       1 RES1   0.0000
    28 C28     26.2575   7.6730  61.6533   C.2       1 RES1   0.0000
    29 C29     25.9865   3.5910  63.2514   C.2       1 RES1   0.0000
    30 C30     27.4865   4.5440  64.5034   C.2       1 RES1   0.0000
    31 N31     29.6585   6.5460  66.3504   N.pl3     1 RES1   0.0000
    32 N32     28.2165   7.1210  64.6724   N.2       1 RES1   0.0000
    33 C33     26.7835   7.9210  62.9213   C.2       1 RES1   0.0000
    34 N34     25.9535   4.8390  62.8483   N.2       1 RES1   0.0000
    35 C35     28.7515   6.1440  65.4474   C.2       1 RES1   0.0000
    36 C36     27.3045   6.8060  63.7324   C.2       1 RES1   0.0000
    37 O37     23.4334   9.6130  58.6003   O.2       1 RES1   0.0000
    38 O38     22.7214   8.2310  60.4903   O.3       1 RES1   0.0000
    39 N39     26.9045   3.3480  64.2304   N.pl3     1 RES1   0.0000
    40 N40     28.4255   4.8280  65.4084   N.2       1 RES1   0.0000
    41 H1      25.3440   2.8640  62.8090   H         1 RES1   0.0000
    42 H2      26.6018   7.0277  61.2331   H         1 RES1   0.0000
    43 H3      26.9586   9.4038  64.7777   H         1 RES1   0.0000
    44 H4      25.7436  11.1812  61.0831   H         1 RES1   0.0000
    45 H5      26.1227  11.3738  63.5155   H         1 RES1   0.0000
    46 H6      26.2466   6.6521  61.2744   H         1 RES1   0.0000
    47 H7      27.1341   2.4741  64.6127   H         1 RES1   0.0000
    48 H8      25.2524   7.2938  59.3309   H         1 RES1   0.0000
    49 H9      25.6879   8.9189  58.7546   H         1 RES1   0.0000
    50 H10     25.3386   2.8179  62.8409   H         1 RES1   0.0000
    51 H11     30.0992   5.8678  66.9636   H         1 RES1   0.0000
    52 H12     29.9040   7.5284  66.4204   H         1 RES1   0.0000
    53 H13     23.9434  10.6197  60.3177   H         1 RES1   0.0000
    54 H14     27.0976   9.4231  64.4319   H         1 RES1   0.0000
    55 H15     25.3834   7.8478  59.4059   H         1 RES1   0.0000
    56 H16     26.6554   9.0284  59.0179   H         1 RES1   0.0000
    57 H17     26.1970  11.2619  63.0356   H         1 RES1   0.0000
    58 H18     25.4071  10.7869  60.7515   H         1 RES1   0.0000
    59 H19     30.0982   5.8389  66.9903   H         1 RES1   0.0000
    60 H20     29.8837   7.5125  66.4967   H         1 RES1   0.0000
    61 H21     27.1107   2.4548  64.6662   H         1 RES1   0.0000
    62 H22     23.0073   8.4599  61.4133   H         1 RES1   0.0000
@<TRIPOS>BOND
     1     1     2    2
     2     1    13    1
     3    21    22    2
     4    21    33    1
     5     2     3    1
     6    22    23    1
     7     3     5    2
     8    23    25    2
     9     4    10    2
    10     4    14    1
    11     4    16    1
    12    24    30    2
    13    24    34    1
    14    24    36    1
    15     5     6    1
    16     5     8    1
    17    25    26    1
    18    25    28    1
    19     6     7    1
    20    26    27    1
    21     7    17    2
    22     7    18    1
    23    27    37    2
    24    27    38    1
    25     8    13    2
    26    28    33    2
    27     9    14    2
    28     9    19    1
    29    29    34    2
    30    29    39    1
    31    10    19    1
    32    10    20    1
    33    30    39    1
    34    30    40    1
    35    11    15    1
    36    31    35    1
    37    12    15    1
    38    12    16    2
    39    32    35    1
    40    32    36    2
    41    13    16    1
    42    33    36    1
    43    15    20    2
    44    35    40    2
    45     9    41    1
    46     8    42    1
    47     1    43    1
    48     3    44    1
    49     2    45    1
    50    28    46    1
    51    19    47    1
    52    26    48    1
    53    26    49    1
    54    29    50    1
    55    31    51    1
    56    31    52    1
    57    18    53    1
    58    21    54    1
    59     6    55    1
    60     6    56    1
    61    22    57    1
    62    23    58    1
    63    11    59    1
    64    11    60    1
    65    39    61    1
    66    38    62    1
@<TRIPOS>SUBSTRUCTURE
     1 RES1        1 GROUP             0 ****  ****    0  
@<TRIPOS>MOLECULE
3QU0:A:X40454
    38    40     1     0     0
SMALL
NO_CHARGES
****
Generated from the CSD

@<TRIPOS>ATOM
     1 N1      28.2818   4.3541  65.3268   N.2       1 RES1   0.0000
     2 N2      29.6148   6.1091  65.8508   N.pl3     1 RES1   0.0000
     3 N3      23.5079   7.2901  60.8799   N.2       1 RES1   0.0000
     4 N4      26.7218   2.8670  64.5268   N.pl3     1 RES1   0.0000
     5 N5      32.3658  12.0242  64.0559   N.pl3     1 RES1   0.0000
     6 C6      26.6828   5.0701  63.7579   C.2       1 RES1   0.0000
     7 C7      27.2008   4.0361  64.5358   C.2       1 RES1   0.0000
     8 C8      28.6028   5.6081  65.1768   C.2       1 RES1   0.0000
     9 C9      30.3548   7.1471  65.5698   C.2       1 RES1   0.0000
    10 C10     25.6008   4.9601  62.8829   C.2       1 RES1   0.0000
    11 C11     25.2608   5.9771  61.9899   C.2       1 RES1   0.0000
    12 C12     26.2418   6.7421  61.2739   C.2       1 RES1   0.0000
    13 C13     25.8558   7.7681  60.3829   C.2       1 RES1   0.0000
    14 C14     24.4838   8.0101  60.2159   C.2       1 RES1   0.0000
    15 C15     23.9098   6.2991  61.7489   C.2       1 RES1   0.0000
    16 C16     30.3098   7.8641  64.3138   C.2       1 RES1   0.0000
    17 C17     31.1618   8.9751  64.0919   C.2       1 RES1   0.0000
    18 C18     32.0678   9.3901  65.1088   C.2       1 RES1   0.0000
    19 C19     32.1228   8.6981  66.3518   C.2       1 RES1   0.0000
    20 C20     31.2708   7.5871  66.5788   C.2       1 RES1   0.0000
    21 O21     24.9348   3.9211  62.8839   O.2       1 RES1   0.0000
    22 O22     34.2128  10.2902  63.9829   O.2       1 RES1   0.0000
    23 O23     33.6938  11.2072  66.0998   O.2       1 RES1   0.0000
    24 S24     27.6078   6.4901  64.0669   S.3       1 RES1   0.0000
    25 S25     33.1538  10.7512  64.8298   S.o2      1 RES1   0.0000
    26 H1      27.2996   6.5283  61.4197   H         1 RES1   0.0000
    27 H2      24.1739   8.7999  59.5332   H         1 RES1   0.0000
    28 H3      26.5993   8.3525  59.8429   H         1 RES1   0.0000
    29 H4      23.1430   5.7347  62.2775   H         1 RES1   0.0000
    30 H5      29.6176   7.5485  63.5346   H         1 RES1   0.0000
    31 H6      32.8171   9.0209  67.1262   H         1 RES1   0.0000
    32 H7      31.1234   9.5107  63.1445   H         1 RES1   0.0000
    33 H8      29.8535   5.6211  66.7082   H         1 RES1   0.0000
    34 H9      25.9244   2.6498  63.9376   H         1 RES1   0.0000
    35 H10     27.1344   2.1450  65.1088   H         1 RES1   0.0000
    36 H11     32.8731  12.8746  63.8329   H         1 RES1   0.0000
    37 H12     31.3839  11.9405  63.8128   H         1 RES1   0.0000
    38 H13     31.3137   7.0623  67.5320   H         1 RES1   0.0000
@<TRIPOS>BOND
     1     1     7    1
     2     1     8    2
     3     2     8    1
     4     2     9    1
     5     3    14    2
     6     3    15    1
     7     4     7    1
     8     5    25    1
     9     6     7    2
    10     6    10    1
    11     6    24    1
    12     8    24    1
    13     9    16    2
    14     9    20    1
    15    10    11    1
    16    10    21    2
    17    11    12    1
    18    11    15    2
    19    12    13    2
    20    13    14    1
    21    16    17    1
    22    17    18    2
    23    18    19    1
    24    18    25    1
    25    19    20    2
    26    22    25    2
    27    23    25    2
    28    12    26    1
    29    14    27    1
    30    13    28    1
    31    15    29    1
    32    16    30    1
    33    19    31    1
    34    17    32    1
    35     2    33    1
    36     4    34    1
    37     4    35    1
    38     5    36    1
    39     5    37    1
    40    20    38    1
@<TRIPOS>SUBSTRUCTURE
     1 RES1        1 GROUP             0 ****  ****    0  
@<TRIPOS>MOLECULE
3F5X:A:EZV300
    57    62     1     0     0
SMALL
NO_CHARGES
****
Generated from the CSD

@<TRIPOS>ATOM
     1 C1      25.4247   5.7522  62.2009   C.2       1 RES1   0.0000
     2 C2      24.9327   4.4631  62.2129   C.2       1 RES1   0.0000
     3 C3      25.4307   3.5191  63.0889   C.2       1 RES1   0.0000
     4 C4      26.4457   3.9561  63.9058   C.2       1 RES1   0.0000
     5 C5      26.9496   5.2392  63.9008   C.2       1 RES1   0.0000
     6 C6      26.4237   6.1892  63.0379   C.2       1 RES1   0.0000
     7 N7      27.1506   3.3021  64.8687   N.pl3     1 RES1   0.0000
     8 N8      28.0976   4.0341  65.4706   N.2       1 RES1   0.0000
     9 C9      27.9696   5.2242  64.8847   C.2       1 RES1   0.0000
    10 C10     28.8895   6.3372  65.1777   C.2       1 RES1   0.0000
    11 N11     29.8035   6.3562  66.1896   N.pl3     1 RES1   0.0000
    12 C12     30.5064   7.5212  66.1046   C.2       1 RES1   0.0000
    13 C13     29.9705   8.1783  65.0147   C.2       1 RES1   0.0000
    14 N14     28.9755   7.4242  64.4467   N.2       1 RES1   0.0000
    15 C15     31.5254   8.0202  66.8845   C.2       1 RES1   0.0000
    16 C16     31.9914   9.2513  66.4835   C.2       1 RES1   0.0000
    17 C17     31.4764   9.9203  65.3946   C.2       1 RES1   0.0000
    18 C18     30.4534   9.4183  64.6157   C.2       1 RES1   0.0000
    19 C19     23.9548   4.0821  61.2230   C.2       1 RES1   0.0000
    20 N20     29.9305  10.1043  63.4998   N.3       1 RES1   0.0000
    21 C21     30.2035   9.3593  62.2829   C.3       1 RES1   0.0000
    22 C22     29.3235   9.9243  61.1870   C.3       1 RES1   0.0000
    23 N23     29.6405  11.3763  61.0721   N.3       1 RES1   0.0000
    24 C24     29.5595  12.1564  62.3389   C.3       1 RES1   0.0000
    25 C25     30.3965  11.4774  63.3988   C.3       1 RES1   0.0000
    26 C26     28.8325  12.0134  60.0082   C.3       1 RES1   0.0000
    27 C27     22.9388   4.9162  60.8091   C.2       1 RES1   0.0000
    28 C28     22.0759   4.4961  59.8202   C.2       1 RES1   0.0000
    29 C29     22.1969   3.2541  59.2312   C.2       1 RES1   0.0000
    30 C30     23.2078   2.4161  59.6392   C.2       1 RES1   0.0000
    31 C31     24.0758   2.8431  60.6191   C.2       1 RES1   0.0000
    32 N32     21.3019   2.8471  58.2383   N.pl3     1 RES1   0.0000
    33 H1      24.9994   6.4603  61.4913   H         1 RES1   0.0000
    34 H2      25.0465   2.5009  63.1295   H         1 RES1   0.0000
    35 H3      26.7803   7.2181  63.0243   H         1 RES1   0.0000
    36 H4      26.9724   2.3331  65.1125   H         1 RES1   0.0000
    37 H5      29.9372   5.6292  66.8852   H         1 RES1   0.0000
    38 H6      31.9278   7.4867  67.7444   H         1 RES1   0.0000
    39 H7      32.7986   9.7148  67.0487   H         1 RES1   0.0000
    40 H8      31.8964  10.8912  65.1362   H         1 RES1   0.0000
    41 H9      29.9755   8.3053  62.4347   H         1 RES1   0.0000
    42 H10     31.2519   9.4681  62.0092   H         1 RES1   0.0000
    43 H11     28.2740   9.7908  61.4451   H         1 RES1   0.0000
    44 H12     29.5323   9.4210  60.2441   H         1 RES1   0.0000
    45 H13     28.5232  12.2056  62.6701   H         1 RES1   0.0000
    46 H14     29.9348  13.1646  62.1698   H         1 RES1   0.0000
    47 H15     31.4471  11.4948  63.1125   H         1 RES1   0.0000
    48 H16     30.2722  11.9849  64.3543   H         1 RES1   0.0000
    49 H17     27.7744  11.9045  60.2416   H         1 RES1   0.0000
    50 H18     29.0836  13.0712  59.9460   H         1 RES1   0.0000
    51 H19     29.0451  11.5332  59.0542   H         1 RES1   0.0000
    52 H20     22.8188   5.9001  61.2602   H         1 RES1   0.0000
    53 H21     21.2776   5.1617  59.4951   H         1 RES1   0.0000
    54 H22     23.3203   1.4288  59.1937   H         1 RES1   0.0000
    55 H23     24.8848   2.1834  60.9293   H         1 RES1   0.0000
    56 H24     21.3996   1.9315  57.8113   H         1 RES1   0.0000
    57 H25     20.5541   3.4671  57.9440   H         1 RES1   0.0000
@<TRIPOS>BOND
     1     1     2    2
     2     1     6    1
     3     2     3    1
     4     2    19    1
     5     3     4    2
     6     4     5    1
     7     4     7    1
     8     5     6    2
     9     5     9    1
    10     7     8    1
    11     8     9    2
    12     9    10    1
    13    10    11    1
    14    10    14    2
    15    11    12    1
    16    12    13    2
    17    12    15    1
    18    13    14    1
    19    13    18    1
    20    15    16    2
    21    16    17    1
    22    17    18    2
    23    18    20    1
    24    19    27    2
    25    19    31    1
    26    20    21    1
    27    20    25    1
    28    21    22    1
    29    22    23    1
    30    23    24    1
    31    23    26    1
    32    24    25    1
    33    27    28    1
    34    28    29    2
    35    29    30    1
    36    29    32    1
    37    30    31    2
    38     1    33    1
    39     3    34    1
    40     6    35    1
    41     7    36    1
    42    11    37    1
    43    15    38    1
    44    16    39    1
    45    17    40    1
    46    21    41    1
    47    21    42    1
    48    22    43    1
    49    22    44    1
    50    24    45    1
    51    24    46    1
    52    25    47    1
    53    25    48    1
    54    26    49    1
    55    26    50    1
    56    26    51    1
    57    27    52    1
    58    28    53    1
    59    30    54    1
    60    31    55    1
    61    32    56    1
    62    32    57    1
@<TRIPOS>SUBSTRUCTURE
     1 RES1        1 GROUP             0 ****  ****    0  
@<TRIPOS>MOLECULE
6Q48:A:HHQ302
    12    12     1     0     0
SMALL
NO_CHARGES
****
Generated from the CSD

@<TRIPOS>ATOM
     1 C1      30.1548   7.8909  64.8879   C.2       1 RES1   0.0000
     2 C2      30.9738   7.0349  65.5449   C.2       1 RES1   0.0000
     3 N3      30.5498   5.7919  65.8699   N.am      1 RES1   0.0000
     4 C4      28.9018   7.4429  64.4629   C.2       1 RES1   0.0000
     5 O5      29.0678   4.1579  65.7399   O.2       1 RES1   0.0000
     6 C6      29.3328   5.2979  65.4899   C.2       1 RES1   0.0000
     7 C7      28.4658   6.1869  64.8049   C.2       1 RES1   0.0000
     8 I8      27.6328   8.6909  63.3789   I         1 RES1   0.0000
     9 H1      27.4545   5.8733  64.5503   H         1 RES1   0.0000
    10 H2      31.1628   5.1993  66.4207   H         1 RES1   0.0000
    11 H3      31.9811   7.3497  65.8135   H         1 RES1   0.0000
    12 H4      30.4692   8.9152  64.6935   H         1 RES1   0.0000
@<TRIPOS>BOND
     1     1     2    2
     2     1     4    1
     3     2     3    1
     4     3     6   am
     5     4     7    2
     6     4     8    1
     7     5     6    2
     8     6     7    1
     9     7     9    1
    10     3    10    1
    11     2    11    1
    12     1    12    1
@<TRIPOS>SUBSTRUCTURE
     1 RES1        1 GROUP             0 ****  ****    0  
@<TRIPOS>MOLECULE
1VYZ:A:N5B300
    30    32     1     0     0
SMALL
NO_CHARGES
****
Generated from the CSD

@<TRIPOS>ATOM
     1 C1      26.7475   4.2939  64.3490   C.2       1 RES1   0.0000
     2 C2      25.4535   3.9869  63.5709   C.3       1 RES1   0.0000
     3 C3      27.4015   5.5139  64.4800   C.2       1 RES1   0.0000
     4 N4      27.4795   3.3579  65.0570   N.pl3     1 RES1   0.0000
     5 C5      24.3176   5.0059  63.7759   C.3       1 RES1   0.0000
     6 C6      24.8345   4.6329  62.3679   C.3       1 RES1   0.0000
     7 C7      28.5285   5.2789  65.2700   C.2       1 RES1   0.0000
     8 N8      28.5605   3.9479  65.6180   N.2       1 RES1   0.0000
     9 N9      29.5065   6.2929  65.6550   N.am      1 RES1   0.0000
    10 C10     29.8585   7.4749  65.0830   C.2       1 RES1   0.0000
    11 C11     31.0384   8.2588  65.6710   C.2       1 RES1   0.0000
    12 O12     29.2185   7.9158  64.1119   O.2       1 RES1   0.0000
    13 C13     31.7534   9.1588  64.8070   C.2       1 RES1   0.0000
    14 C14     31.4584   8.1838  67.0470   C.2       1 RES1   0.0000
    15 C15     32.8304   9.9478  65.2940   C.2       1 RES1   0.0000
    16 C16     32.5344   8.9738  67.5280   C.2       1 RES1   0.0000
    17 C17     33.2154   9.8518  66.6500   C.2       1 RES1   0.0000
    18 H1      31.4642   9.2372  63.7600   H         1 RES1   0.0000
    19 H2      30.9418   7.5100  67.7289   H         1 RES1   0.0000
    20 H3      27.0947   6.4664  64.0504   H         1 RES1   0.0000
    21 H4      27.2414   2.3750  65.1430   H         1 RES1   0.0000
    22 H5      33.3577  10.6248  64.6236   H         1 RES1   0.0000
    23 H6      32.8365   8.9050  68.5720   H         1 RES1   0.0000
    24 H7      24.2084   4.0450  61.6983   H         1 RES1   0.0000
    25 H8      25.4034   5.3589  61.7889   H         1 RES1   0.0000
    26 H9      30.0167   6.0754  66.5051   H         1 RES1   0.0000
    27 H10     34.0409  10.4567  67.0223   H         1 RES1   0.0000
    28 H11     24.5294   5.9877  64.1968   H         1 RES1   0.0000
    29 H12     23.3344   4.6738  64.1061   H         1 RES1   0.0000
    30 H13     25.1198   2.9595  63.7086   H         1 RES1   0.0000
@<TRIPOS>BOND
     1     1     2    1
     2     1     3    2
     3     1     4    1
     4     2     5    1
     5     2     6    1
     6     3     7    1
     7     4     8    1
     8     5     6    1
     9     7     8    2
    10     7     9    1
    11     9    10   am
    12    10    11    1
    13    10    12    2
    14    11    13    2
    15    11    14    1
    16    13    15    1
    17    14    16    2
    18    15    17    2
    19    16    17    1
    20    13    18    1
    21    14    19    1
    22     3    20    1
    23     4    21    1
    24    15    22    1
    25    16    23    1
    26     6    24    1
    27     6    25    1
    28     9    26    1
    29    17    27    1
    30     5    28    1
    31     5    29    1
    32     2    30    1
@<TRIPOS>SUBSTRUCTURE
     1 RES1        1 GROUP             0 ****  ****    0  
@<TRIPOS>MOLECULE
1VYW:A:2922300
    39    42     1     0     0
SMALL
NO_CHARGES
****
Generated from the CSD

@<TRIPOS>ATOM
     1 C1      24.3971   5.3240  63.1589   C.3       1 RES1   0.0000
     2 C2      24.9701   4.2700  62.2160   C.3       1 RES1   0.0000
     3 C3      25.1501   4.1210  63.7259   C.3       1 RES1   0.0000
     4 C4      26.5780   4.3350  64.2819   C.2       1 RES1   0.0000
     5 C5      27.4140   5.4330  64.1329   C.2       1 RES1   0.0000
     6 C6      28.5839   5.1240  64.8248   C.2       1 RES1   0.0000
     7 N7      28.4579   3.8740  65.3808   N.2       1 RES1   0.0000
     8 N8      27.2480   3.4090  65.0478   N.pl3     1 RES1   0.0000
     9 N9      29.7649   5.9770  64.9348   N.am      1 RES1   0.0000
    10 C10     30.0519   7.1951  64.4448   C.2       1 RES1   0.0000
    11 C11     31.4458   7.7621  64.7928   C.3       1 RES1   0.0000
    12 C12     31.3318   8.9351  65.7598   C.2       1 RES1   0.0000
    13 C13     31.4378   8.7141  67.1607   C.2       1 RES1   0.0000
    14 C14     31.3188   9.8011  68.0577   C.2       1 RES1   0.0000
    15 C15     31.0918  11.1751  67.5167   C.2       1 RES1   0.0000
    16 C16     30.9888  11.3581  66.1188   C.2       1 RES1   0.0000
    17 C17     31.1098  10.2511  65.2498   C.2       1 RES1   0.0000
    18 C18     30.9708  12.2691  68.4206   C.2       1 RES1   0.0000
    19 C19     31.4188   9.6161  69.4606   C.2       1 RES1   0.0000
    20 C20     31.2948  10.7331  70.3336   C.2       1 RES1   0.0000
    21 C21     31.0758  12.0411  69.8196   C.2       1 RES1   0.0000
    22 O22     29.2809   7.8611  63.7489   O.2       1 RES1   0.0000
    23 H1      24.5477   3.3564  64.2143   H         1 RES1   0.0000
    24 H2      30.9873  12.8802  70.5081   H         1 RES1   0.0000
    25 H3      31.0327  10.4031  64.1742   H         1 RES1   0.0000
    26 H4      30.7987  13.2754  68.0417   H         1 RES1   0.0000
    27 H5      31.5901   8.6211  69.8688   H         1 RES1   0.0000
    28 H6      31.3686  10.5844  71.4099   H         1 RES1   0.0000
    29 H7      25.8259   4.5101  61.5869   H         1 RES1   0.0000
    30 H8      24.3014   3.5991  61.6787   H         1 RES1   0.0000
    31 H9      23.3196   5.4051  63.2945   H         1 RES1   0.0000
    32 H10     24.8441   6.3160  63.2026   H         1 RES1   0.0000
    33 H11     30.8160  12.3532  65.7116   H         1 RES1   0.0000
    34 H12     31.6104   7.7089  67.5424   H         1 RES1   0.0000
    35 H13     31.9313   8.1000  63.8785   H         1 RES1   0.0000
    36 H14     32.0447   6.9777  65.2533   H         1 RES1   0.0000
    37 H15     30.5130   5.5714  65.4880   H         1 RES1   0.0000
    38 H16     26.8781   2.5041  65.3208   H         1 RES1   0.0000
    39 H17     27.1994   6.3500  63.5862   H         1 RES1   0.0000
@<TRIPOS>BOND
     1     1     2    1
     2     1     3    1
     3     2     3    1
     4     3     4    1
     5     4     5    2
     6     4     8    1
     7     5     6    1
     8     6     7    2
     9     6     9    1
    10     7     8    1
    11     9    10   am
    12    10    11    1
    13    10    22    2
    14    11    12    1
    15    12    13    2
    16    12    17    1
    17    13    14    1
    18    14    15    2
    19    14    19    1
    20    15    16    1
    21    15    18    1
    22    16    17    2
    23    18    21    2
    24    19    20    2
    25    20    21    1
    26     3    23    1
    27    21    24    1
    28    17    25    1
    29    18    26    1
    30    19    27    1
    31    20    28    1
    32     2    29    1
    33     2    30    1
    34     1    31    1
    35     1    32    1
    36    16    33    1
    37    13    34    1
    38    11    35    1
    39    11    36    1
    40     9    37    1
    41     8    38    1
    42     5    39    1
@<TRIPOS>SUBSTRUCTURE
     1 RES1        1 GROUP             0 ****  ****    0  
@<TRIPOS>MOLECULE
6GUC:A:SU9301
    29    31     1     0     0
SMALL
NO_CHARGES
****
Generated from the CSD

@<TRIPOS>ATOM
     1 N1      29.7003   6.9236  65.2723   N.pl3     1 RES1   0.0000
     2 C2      30.7763   7.6556  65.5273   C.2       1 RES1   0.0000
     3 N3      30.7573   8.6945  64.7044   N.2       1 RES1   0.0000
     4 C4      29.5583   8.7185  64.0444   C.2       1 RES1   0.0000
     5 C5      28.9073   7.5496  64.3424   C.2       1 RES1   0.0000
     6 C6      27.6893   7.1466  63.8114   C.2       1 RES1   0.0000
     7 C7      27.1373   5.8787  63.8924   C.2       1 RES1   0.0000
     8 C8      27.4953   4.6847  64.7264   C.2       1 RES1   0.0000
     9 O9      28.4343   4.5497  65.5323   O.2       1 RES1   0.0000
    10 N10     26.6403   3.6858  64.3634   N.am      1 RES1   0.0000
    11 C11     25.6922   4.1298  63.4334   C.2       1 RES1   0.0000
    12 C12     24.6582   3.4348  62.8365   C.2       1 RES1   0.0000
    13 C13     23.9082   4.0988  61.8675   C.2       1 RES1   0.0000
    14 C14     24.1582   5.4237  61.5295   C.2       1 RES1   0.0000
    15 O15     23.3072   5.9837  60.6086   O.3       1 RES1   0.0000
    16 C16     23.5432   7.3306  60.2206   C.3       1 RES1   0.0000
    17 C17     25.2152   6.1087  62.1235   C.2       1 RES1   0.0000
    18 C18     25.9763   5.4577  63.0845   C.2       1 RES1   0.0000
    19 H1      29.1902   9.5173  63.4023   H         1 RES1   0.0000
    20 H2      25.4404   7.1356  61.8394   H         1 RES1   0.0000
    21 H3      24.5350   7.4125  59.7784   H         1 RES1   0.0000
    22 H4      22.7942   7.6347  59.4909   H         1 RES1   0.0000
    23 H5      23.4812   7.9765  61.0952   H         1 RES1   0.0000
    24 H6      23.1048   3.5654  61.3616   H         1 RES1   0.0000
    25 H7      24.4371   2.4050  63.1132   H         1 RES1   0.0000
    26 H8      26.6857   2.7377  64.7230   H         1 RES1   0.0000
    27 H9      27.1116   7.9009  63.2793   H         1 RES1   0.0000
    28 H10     29.4926   6.0283  65.7031   H         1 RES1   0.0000
    29 H11     31.5372   7.4420  66.2766   H         1 RES1   0.0000
@<TRIPOS>BOND
     1     1     2    1
     2     1     5    1
     3     2     3    2
     4     3     4    1
     5     4     5    2
     6     5     6    1
     7     6     7    2
     8     7     8    1
     9     7    18    1
    10     8     9    2
    11     8    10   am
    12    10    11    1
    13    11    12    1
    14    11    18    2
    15    12    13    2
    16    13    14    1
    17    14    15    1
    18    14    17    2
    19    15    16    1
    20    17    18    1
    21     4    19    1
    22    17    20    1
    23    16    21    1
    24    16    22    1
    25    16    23    1
    26    13    24    1
    27    12    25    1
    28    10    26    1
    29     6    27    1
    30     1    28    1
    31     2    29    1
@<TRIPOS>SUBSTRUCTURE
     1 RES1        1 GROUP             0 ****  ****    0  
@<TRIPOS>MOLECULE
2A0C:X:CK9500
    51    53     1     0     0
SMALL
NO_CHARGES
****
Generated from the CSD

@<TRIPOS>ATOM
     1 O1      30.2757   9.9197  64.3451   O.3       1 RES1   0.0000
     2 C2      30.9427   9.8087  65.5460   C.2       1 RES1   0.0000
     3 C3      31.0697  10.9077  66.4460   C.2       1 RES1   0.0000
     4 C4      31.7627  10.7377  67.6860   C.2       1 RES1   0.0000
     5 C5      32.3277   9.4727  68.0220   C.2       1 RES1   0.0000
     6 C6      32.2017   8.3767  67.1210   C.2       1 RES1   0.0000
     7 C7      31.5267   8.5617  65.8890   C.2       1 RES1   0.0000
     8 C8      31.3437   7.4298  64.9360   C.2       1 RES1   0.0000
     9 N9      30.3547   6.5628  65.0630   N.2       1 RES1   0.0000
    10 C10     29.2477   6.5318  64.5430   C.2       1 RES1   0.0000
    11 C11     28.3458   5.4688  64.6830   C.2       1 RES1   0.0000
    12 N12     28.3408   4.2759  65.3060   N.2       1 RES1   0.0000
    13 C13     27.2138   3.6639  65.0330   C.2       1 RES1   0.0000
    14 C14     27.0898   5.5898  63.9771   C.2       1 RES1   0.0000
    15 N15     26.3888   4.4349  64.2131   N.pl3     1 RES1   0.0000
    16 C16     25.0228   4.0979  63.6611   C.3       1 RES1   0.0000
    17 C17     25.1868   3.7439  62.1941   C.3       1 RES1   0.0000
    18 C18     23.8948   5.1458  63.7931   C.3       1 RES1   0.0000
    19 N19     26.7788   6.6788  63.1991   N.2       1 RES1   0.0000
    20 C20     27.6608   7.7078  63.0921   C.2       1 RES1   0.0000
    21 N21     28.8437   7.6178  63.7671   N.2       1 RES1   0.0000
    22 N22     27.4168   8.7457  62.3621   N.pl3     1 RES1   0.0000
    23 C23     26.2478   8.9367  61.4351   C.3       1 RES1   0.0000
    24 C24     25.1208   9.6607  62.2681   C.3       1 RES1   0.0000
    25 C25     25.1868  11.1887  62.5321   C.3       1 RES1   0.0000
    26 C26     25.7188   7.6638  60.6681   C.3       1 RES1   0.0000
    27 O27     26.5788   7.0708  59.6911   O.3       1 RES1   0.0000
    28 H1      25.1849  11.7216  61.5824   H         1 RES1   0.0000
    29 H2      24.3227  11.4930  63.1208   H         1 RES1   0.0000
    30 H3      26.0992  11.4236  63.0783   H         1 RES1   0.0000
    31 H4      27.4232   6.7808  60.1258   H         1 RES1   0.0000
    32 H5      26.5708   9.6442  60.6728   H         1 RES1   0.0000
    33 H6      25.8533   2.8879  62.0996   H         1 RES1   0.0000
    34 H7      24.2150   3.4960  61.7697   H         1 RES1   0.0000
    35 H8      25.6097   4.5939  61.6607   H         1 RES1   0.0000
    36 H9      26.9529   2.6730  65.4018   H         1 RES1   0.0000
    37 H10     28.0819   9.5102  62.4202   H         1 RES1   0.0000
    38 H11     24.1856   6.0592  63.2764   H         1 RES1   0.0000
    39 H12     22.9809   4.7532  63.3497   H         1 RES1   0.0000
    40 H13     23.7229   5.3634  64.8462   H         1 RES1   0.0000
    41 H14     24.7984   7.9490  60.1608   H         1 RES1   0.0000
    42 H15     25.5006   6.9016  61.4147   H         1 RES1   0.0000
    43 H16     25.0965   9.1775  63.2437   H         1 RES1   0.0000
    44 H17     24.1822   9.4755  61.7478   H         1 RES1   0.0000
    45 H18     24.6845   3.1975  64.1717   H         1 RES1   0.0000
    46 H19     30.7138  10.6136  63.7860   H         1 RES1   0.0000
    47 H20     30.6398  11.8749  66.1897   H         1 RES1   0.0000
    48 H21     31.8588  11.5760  68.3744   H         1 RES1   0.0000
    49 H22     32.8549   9.3445  68.9662   H         1 RES1   0.0000
    50 H23     32.6207   7.4046  67.3769   H         1 RES1   0.0000
    51 H24     32.0455   7.3142  64.1113   H         1 RES1   0.0000
@<TRIPOS>BOND
     1     1     2    1
     2     2     3    2
     3     2     7    1
     4     3     4    1
     5     4     5    2
     6     5     6    1
     7     6     7    2
     8     7     8    1
     9     8     9    2
    10     9    10    1
    11    10    11    2
    12    10    21    1
    13    11    12    1
    14    11    14    1
    15    12    13    2
    16    13    15    1
    17    14    15    1
    18    14    19    2
    19    15    16    1
    20    16    17    1
    21    16    18    1
    22    19    20    1
    23    20    21    2
    24    20    22    1
    25    22    23    1
    26    23    24    1
    27    23    26    1
    28    24    25    1
    29    26    27    1
    30    25    28    1
    31    25    29    1
    32    25    30    1
    33    27    31    1
    34    23    32    1
    35    17    33    1
    36    17    34    1
    37    17    35    1
    38    13    36    1
    39    22    37    1
    40    18    38    1
    41    18    39    1
    42    18    40    1
    43    26    41    1
    44    26    42    1
    45    24    43    1
    46    24    44    1
    47    16    45    1
    48     1    46    1
    49     3    47    1
    50     4    48    1
    51     5    49    1
    52     6    50    1
    53     8    51    1
@<TRIPOS>SUBSTRUCTURE
     1 RES1        1 GROUP             0 ****  ****    0  
@<TRIPOS>MOLECULE
2V0D:A:C531299
    21    22     1     0     0
SMALL
NO_CHARGES
****
Generated from the CSD

@<TRIPOS>ATOM
     1 C1      26.2131   8.7081  62.5480   C.2       1 RES1   0.0000
     2 C2      25.9731  10.0611  62.2000   C.2       1 RES1   0.0000
     3 C3      25.7471  10.3931  60.8820   C.2       1 RES1   0.0000
     4 C4      25.7511   9.3891  59.9000   C.2       1 RES1   0.0000
     5 N5      25.9791   8.0881  60.2370   N.2       1 RES1   0.0000
     6 C6      26.2431   7.7331  61.5400   C.2       1 RES1   0.0000
     7 C7      26.3791   6.3601  61.8520   C.2       1 RES1   0.0000
     8 C8      26.9191   5.8560  63.0571   C.2       1 RES1   0.0000
     9 S9      26.7411   4.2560  63.5351   S.3       1 RES1   0.0000
    10 C10     27.7761   6.5341  63.9241   C.2       1 RES1   0.0000
    11 O11     28.0801   7.7141  63.8181   O.2       1 RES1   0.0000
    12 N12     28.1941   5.7080  64.9561   N.2       1 RES1   0.0000
    13 C13     27.7031   4.4320  64.8341   C.2       1 RES1   0.0000
    14 N14     27.9381   3.4770  65.6711   N.pl3     1 RES1   0.0000
    15 H1      26.0430   5.6383  61.1090   H         1 RES1   0.0000
    16 H2      25.5703   9.6526  58.8589   H         1 RES1   0.0000
    17 H3      28.5468   3.6382  66.4671   H         1 RES1   0.0000
    18 H4      27.5141   2.5652  65.5329   H         1 RES1   0.0000
    19 H5      25.9674  10.8325  62.9687   H         1 RES1   0.0000
    20 H6      26.3727   8.4282  63.5882   H         1 RES1   0.0000
    21 H7      25.5661  11.4300  60.6028   H         1 RES1   0.0000
@<TRIPOS>BOND
     1     1     2    2
     2     1     6    1
     3     2     3    1
     4     3     4    2
     5     4     5    1
     6     5     6    2
     7     6     7    1
     8     7     8    2
     9     8     9    1
    10     8    10    1
    11     9    13    1
    12    10    11    2
    13    10    12    1
    14    12    13    2
    15    13    14    1
    16     7    15    1
    17     4    16    1
    18    14    17    1
    19    14    18    1
    20     2    19    1
    21     1    20    1
    22     3    21    1
@<TRIPOS>SUBSTRUCTURE
     1 RES1        1 GROUP             0 ****  ****    0  
@<TRIPOS>MOLECULE
4CFN:A:JYM1298
    38    40     1     0     0
SMALL
NO_CHARGES
****
Generated from the CSD

@<TRIPOS>ATOM
     1 F1      24.6610   3.4602  63.3767   F         1 RES1   0.0000
     2 C2      24.5630   4.6193  63.0327   C.3       1 RES1   0.0000
     3 F3      24.3970   4.6513  61.8897   F         1 RES1   0.0000
     4 F4      23.5750   5.1263  63.5777   F         1 RES1   0.0000
     5 C5      25.8470   5.3663  63.3467   C.2       1 RES1   0.0000
     6 N6      26.7610   5.0283  64.2567   N.pl3     1 RES1   0.0000
     7 N7      26.1550   6.4774  62.7077   N.2       1 RES1   0.0000
     8 C8      27.3170   6.8554  63.2007   C.2       1 RES1   0.0000
     9 C9      27.7080   5.9773  64.1637   C.2       1 RES1   0.0000
    10 N10     28.8640   6.1833  64.8207   N.2       1 RES1   0.0000
    11 C11     29.6080   7.2624  64.4747   C.2       1 RES1   0.0000
    12 N12     30.7590   7.5254  65.0707   N.pl3     1 RES1   0.0000
    13 N13     29.2310   8.1244  63.5117   N.2       1 RES1   0.0000
    14 C14     28.0630   7.8964  62.8887   C.2       1 RES1   0.0000
    15 O15     27.5650   8.6985  61.9177   O.3       1 RES1   0.0000
    16 C16     28.5390   9.4895  61.2317   C.3       1 RES1   0.0000
    17 C17     28.0140  10.9266  61.1657   C.3       1 RES1   0.0000
    18 C18     26.8120  11.1706  62.0537   C.3       1 RES1   0.0000
    19 C19     26.7240  12.7277  62.1597   C.3       1 RES1   0.0000
    20 C20     26.4030  13.3247  60.7707   C.3       1 RES1   0.0000
    21 C21     27.3230  12.8017  59.6767   C.3       1 RES1   0.0000
    22 C22     27.5530  11.2366  59.7817   C.3       1 RES1   0.0000
    23 H1      31.2990   8.3394  64.7948   H         1 RES1   0.0000
    24 H2      31.1023   6.9133  65.8040   H         1 RES1   0.0000
    25 H3      28.6873   9.1028  60.2245   H         1 RES1   0.0000
    26 H4      29.4838   9.4649  61.7728   H         1 RES1   0.0000
    27 H5      28.8116  11.6145  61.4422   H         1 RES1   0.0000
    28 H6      26.9604  10.7243  63.0359   H         1 RES1   0.0000
    29 H7      25.9089  10.7625  61.6022   H         1 RES1   0.0000
    30 H8      27.6763  13.1214  62.5121   H         1 RES1   0.0000
    31 H9      25.9369  12.9993  62.8616   H         1 RES1   0.0000
    32 H10     26.5073  14.4073  60.8248   H         1 RES1   0.0000
    33 H11     25.3759  13.0714  60.5121   H         1 RES1   0.0000
    34 H12     28.2859  13.3036  59.7592   H         1 RES1   0.0000
    35 H13     26.8785  13.0262  58.7082   H         1 RES1   0.0000
    36 H14     26.6207  10.7122  59.5773   H         1 RES1   0.0000
    37 H15     28.3095  10.9259  59.0626   H         1 RES1   0.0000
    38 H16     26.7450   4.2294  64.8825   H         1 RES1   0.0000
@<TRIPOS>BOND
     1     1     2    1
     2     2     3    1
     3     2     4    1
     4     2     5    1
     5     5     6    1
     6     5     7    2
     7     6     9    1
     8     7     8    1
     9     8     9    2
    10     8    14    1
    11     9    10    1
    12    10    11    2
    13    11    12    1
    14    11    13    1
    15    13    14    2
    16    14    15    1
    17    15    16    1
    18    16    17    1
    19    17    18    1
    20    17    22    1
    21    18    19    1
    22    19    20    1
    23    20    21    1
    24    21    22    1
    25    12    23    1
    26    12    24    1
    27    16    25    1
    28    16    26    1
    29    17    27    1
    30    18    28    1
    31    18    29    1
    32    19    30    1
    33    19    31    1
    34    20    32    1
    35    20    33    1
    36    21    34    1
    37    21    35    1
    38    22    36    1
    39    22    37    1
    40     6    38    1
@<TRIPOS>SUBSTRUCTURE
     1 RES1        1 GROUP             0 ****  ****    0  
@<TRIPOS>MOLECULE
2VTN:A:LZ71299
    30    31     1     0     0
SMALL
NO_CHARGES
****
Generated from the CSD

@<TRIPOS>ATOM
     1 C1      24.2569   6.1188  61.5742   C.3       1 RES1   0.0000
     2 C2      24.8269   5.0189  62.4042   C.2       1 RES1   0.0000
     3 O3      24.3429   3.9009  62.4152   O.2       1 RES1   0.0000
     4 N4      25.9199   5.3359  63.1252   N.am      1 RES1   0.0000
     5 C5      26.5969   4.4999  63.9982   C.2       1 RES1   0.0000
     6 C6      26.3409   3.1999  64.3222   C.2       1 RES1   0.0000
     7 N7      27.2669   2.8369  65.1962   N.pl3     1 RES1   0.0000
     8 N8      28.1159   3.8519  65.4652   N.2       1 RES1   0.0000
     9 C9      27.7199   4.8579  64.7312   C.2       1 RES1   0.0000
    10 C10     28.4509   6.1468  64.7612   C.2       1 RES1   0.0000
    11 O11     28.0229   7.1328  64.1802   O.2       1 RES1   0.0000
    12 N12     29.6189   6.1538  65.4272   N.am      1 RES1   0.0000
    13 C13     30.4949   7.2208  65.5542   C.2       1 RES1   0.0000
    14 C14     31.1129   7.4788  66.7763   C.2       1 RES1   0.0000
    15 C15     31.9779   8.5478  66.9073   C.2       1 RES1   0.0000
    16 C16     32.2269   9.3497  65.8153   C.2       1 RES1   0.0000
    17 F17     33.0699  10.3887  65.9473   F         1 RES1   0.0000
    18 C18     31.6319   9.1127  64.5902   C.2       1 RES1   0.0000
    19 C19     30.7629   8.0468  64.4592   C.2       1 RES1   0.0000
    20 H1      29.8871   5.2882  65.8844   H         1 RES1   0.0000
    21 H2      30.9131   6.8350  67.6316   H         1 RES1   0.0000
    22 H3      32.4575   8.7542  67.8630   H         1 RES1   0.0000
    23 H4      27.3305   1.9129  65.6113   H         1 RES1   0.0000
    24 H5      25.5321   2.5808  63.9369   H         1 RES1   0.0000
    25 H6      31.8455   9.7579  63.7393   H         1 RES1   0.0000
    26 H7      30.2856   7.8497  63.5004   H         1 RES1   0.0000
    27 H8      23.2264   6.3032  61.8741   H         1 RES1   0.0000
    28 H9      24.8445   7.0243  61.7184   H         1 RES1   0.0000
    29 H10     24.2836   5.8322  60.5239   H         1 RES1   0.0000
    30 H11     26.2823   6.2780  63.0185   H         1 RES1   0.0000
@<TRIPOS>BOND
     1     1     2    1
     2     2     3    2
     3     2     4   am
     4     4     5    1
     5     5     6    2
     6     5     9    1
     7     6     7    1
     8     7     8    1
     9     8     9    2
    10     9    10    1
    11    10    11    2
    12    10    12   am
    13    12    13    1
    14    13    14    2
    15    13    19    1
    16    14    15    1
    17    15    16    2
    18    16    17    1
    19    16    18    1
    20    18    19    2
    21    12    20    1
    22    14    21    1
    23    15    22    1
    24     7    23    1
    25     6    24    1
    26    18    25    1
    27    19    26    1
    28     1    27    1
    29     1    28    1
    30     1    29    1
    31     4    30    1
@<TRIPOS>SUBSTRUCTURE
     1 RES1        1 GROUP             0 ****  ****    0  
@<TRIPOS>MOLECULE
2VTO:A:LZ81299
    37    39     1     0     0
SMALL
NO_CHARGES
****
Generated from the CSD

@<TRIPOS>ATOM
     1 F1      33.3728  10.5518  66.2539   F         1 RES1   0.0000
     2 C2      32.5158   9.5258  66.0879   C.2       1 RES1   0.0000
     3 C3      32.0628   9.2238  64.8189   C.2       1 RES1   0.0000
     4 C4      31.1928   8.1598  64.6509   C.2       1 RES1   0.0000
     5 C5      30.7938   7.3978  65.7559   C.2       1 RES1   0.0000
     6 N6      29.9018   6.3209  65.5919   N.am      1 RES1   0.0000
     7 C7      28.7838   6.3809  64.8579   C.2       1 RES1   0.0000
     8 O8      28.4358   7.4088  64.2799   O.2       1 RES1   0.0000
     9 C9      27.9838   5.1379  64.7709   C.2       1 RES1   0.0000
    10 N10     28.2968   4.0859  65.5189   N.2       1 RES1   0.0000
    11 N11     27.3878   3.1269  65.2019   N.pl3     1 RES1   0.0000
    12 C12     26.5158   3.5459  64.2909   C.2       1 RES1   0.0000
    13 C13     26.8608   4.8499  63.9779   C.2       1 RES1   0.0000
    14 N14     26.2768   5.7339  63.0889   N.am      1 RES1   0.0000
    15 C15     25.1578   5.5269  62.3579   C.2       1 RES1   0.0000
    16 O16     24.5008   4.4869  62.4179   O.2       1 RES1   0.0000
    17 C17     24.7478   6.6558  61.4679   C.2       1 RES1   0.0000
    18 C18     23.4128   7.0298  61.3729   C.2       1 RES1   0.0000
    19 C19     23.0378   8.0838  60.5599   C.2       1 RES1   0.0000
    20 C20     23.9908   8.7718  59.8349   C.2       1 RES1   0.0000
    21 C21     25.3208   8.4118  59.9239   C.2       1 RES1   0.0000
    22 C22     25.7008   7.3598  60.7369   C.2       1 RES1   0.0000
    23 C23     31.2658   7.7308  67.0269   C.2       1 RES1   0.0000
    24 C24     32.1258   8.7988  67.1939   C.2       1 RES1   0.0000
    25 H1      30.1195   5.4461  66.0584   H         1 RES1   0.0000
    26 H2      30.9544   7.1457  67.8910   H         1 RES1   0.0000
    27 H3      26.0712   8.9569  59.3533   H         1 RES1   0.0000
    28 H4      32.4911   9.0634  68.1851   H         1 RES1   0.0000
    29 H5      30.8183   7.9152  63.6580   H         1 RES1   0.0000
    30 H6      27.3762   2.1989  65.6129   H         1 RES1   0.0000
    31 H7      26.7511   7.0805  60.8057   H         1 RES1   0.0000
    32 H8      23.6930   9.5991  59.1924   H         1 RES1   0.0000
    33 H9      21.9898   8.3716  60.4913   H         1 RES1   0.0000
    34 H10     22.6575   6.4898  61.9420   H         1 RES1   0.0000
    35 H11     26.7359   6.6317  62.9729   H         1 RES1   0.0000
    36 H12     25.6894   2.9741  63.8714   H         1 RES1   0.0000
    37 H13     32.3852   9.8141  63.9624   H         1 RES1   0.0000
@<TRIPOS>BOND
     1     1     2    1
     2     2     3    2
     3     2    24    1
     4     3     4    1
     5     4     5    2
     6     5     6    1
     7     5    23    1
     8     6     7   am
     9     7     8    2
    10     7     9    1
    11     9    10    2
    12     9    13    1
    13    10    11    1
    14    11    12    1
    15    12    13    2
    16    13    14    1
    17    14    15   am
    18    15    16    2
    19    15    17    1
    20    17    18    2
    21    17    22    1
    22    18    19    1
    23    19    20    2
    24    20    21    1
    25    21    22    2
    26    23    24    2
    27     6    25    1
    28    23    26    1
    29    21    27    1
    30    24    28    1
    31     4    29    1
    32    11    30    1
    33    22    31    1
    34    20    32    1
    35    19    33    1
    36    18    34    1
    37    14    35    1
    38    12    36    1
    39     3    37    1
@<TRIPOS>SUBSTRUCTURE
     1 RES1        1 GROUP             0 ****  ****    0  
@<TRIPOS>MOLECULE
2VTM:A:LZM1299
    15    16     1     0     0
SMALL
NO_CHARGES
****
Generated from the CSD

@<TRIPOS>ATOM
     1 N1      24.1916   4.3641  62.7255   N.1       1 RES1   0.0000
     2 C2      25.1306   4.3881  63.3725   C.1       1 RES1   0.0000
     3 C3      26.2986   4.4171  64.1815   C.2       1 RES1   0.0000
     4 C4      26.8576   3.3530  64.8375   C.2       1 RES1   0.0000
     5 N5      27.9455   3.7081  65.5155   N.2       1 RES1   0.0000
     6 N6      28.0745   5.0381  65.2845   N.pl3     1 RES1   0.0000
     7 C7      29.0315   5.8541  65.7355   C.2       1 RES1   0.0000
     8 C8      28.9995   7.1821  65.3835   C.2       1 RES1   0.0000
     9 C9      27.9845   7.6371  64.5675   C.2       1 RES1   0.0000
    10 C10     27.0856   5.5351  64.4645   C.2       1 RES1   0.0000
    11 N11     27.0276   6.8301  64.0955   N.2       1 RES1   0.0000
    12 H1      26.4600   2.3396  64.8077   H         1 RES1   0.0000
    13 H2      29.7658   7.8667  65.7442   H         1 RES1   0.0000
    14 H3      27.9614   8.6919  64.2977   H         1 RES1   0.0000
    15 H4      29.8267   5.4718  66.3738   H         1 RES1   0.0000
@<TRIPOS>BOND
     1     1     2    3
     2     2     3    1
     3     3     4    1
     4     3    10    2
     5     4     5    2
     6     5     6    1
     7     6     7    1
     8     6    10    1
     9     7     8    2
    10     8     9    1
    11     9    11    2
    12    10    11    1
    13     4    12    1
    14     8    13    1
    15     9    14    1
    16     7    15    1
@<TRIPOS>SUBSTRUCTURE
     1 RES1        1 GROUP             0 ****  ****    0  
@<TRIPOS>MOLECULE
2VTQ:A:LZA1299
    42    44     1     0     0
SMALL
NO_CHARGES
****
Generated from the CSD

@<TRIPOS>ATOM
     1 C1      31.8463   9.3499  67.2559   C.3       1 RES1   0.0000
     2 C2      31.0933   8.0250  67.1559   C.3       1 RES1   0.0000
     3 C3      30.5184   7.8520  65.7489   C.3       1 RES1   0.0000
     4 N4      29.7714   6.6010  65.6310   N.am      1 RES1   0.0000
     5 C5      28.5984   6.5550  64.9780   C.2       1 RES1   0.0000
     6 O6      28.0994   7.5550  64.4780   O.2       1 RES1   0.0000
     7 C7      27.9154   5.2340  64.8820   C.2       1 RES1   0.0000
     8 N8      28.2784   4.1520  65.5950   N.2       1 RES1   0.0000
     9 N9      27.4344   3.1670  65.2150   N.pl3     1 RES1   0.0000
    10 C10     26.5504   3.6080  64.2930   C.2       1 RES1   0.0000
    11 C11     26.8314   4.9230  64.0590   C.2       1 RES1   0.0000
    12 N12     26.2364   5.8200  63.1870   N.am      1 RES1   0.0000
    13 C13     25.2985   5.5210  62.2751   C.2       1 RES1   0.0000
    14 O14     24.7985   4.3770  62.1531   O.2       1 RES1   0.0000
    15 C15     24.8985   6.6560  61.3811   C.2       1 RES1   0.0000
    16 C16     25.8285   7.2610  60.5301   C.2       1 RES1   0.0000
    17 F17     27.0914   6.7960  60.5361   F         1 RES1   0.0000
    18 C18     25.4825   8.3260  59.7051   C.2       1 RES1   0.0000
    19 C19     24.1815   8.7959  59.7091   C.2       1 RES1   0.0000
    20 C20     23.2355   8.2070  60.5421   C.2       1 RES1   0.0000
    21 C21     23.6065   7.1520  61.3751   C.2       1 RES1   0.0000
    22 F22     22.6905   6.5730  62.1741   F         1 RES1   0.0000
    23 C23     31.6373   7.9450  64.7030   C.3       1 RES1   0.0000
    24 N24     32.9563   9.3849  66.2589   N.3       1 RES1   0.0000
    25 C25     32.4463   9.2449  64.8650   C.3       1 RES1   0.0000
    26 H1      32.2589   9.4550  68.2582   H         1 RES1   0.0000
    27 H2      31.1586  10.1709  67.0584   H         1 RES1   0.0000
    28 H3      26.5361   6.7881  63.2427   H         1 RES1   0.0000
    29 H4      23.8985   9.6247  59.0619   H         1 RES1   0.0000
    30 H5      26.2301   8.7864  59.0609   H         1 RES1   0.0000
    31 H6      22.2084   8.5688  60.5436   H         1 RES1   0.0000
    32 H7      31.1956   7.9235  63.7078   H         1 RES1   0.0000
    33 H8      32.3059   7.0937  64.8218   H         1 RES1   0.0000
    34 H9      29.8251   8.6723  65.5690   H         1 RES1   0.0000
    35 H10     30.2805   8.0171  67.8806   H         1 RES1   0.0000
    36 H11     31.7774   7.2049  67.3688   H         1 RES1   0.0000
    37 H12     30.1446   5.7546  66.0487   H         1 RES1   0.0000
    38 H13     27.4612   2.2186  65.5756   H         1 RES1   0.0000
    39 H14     31.8059  10.0945  64.6328   H         1 RES1   0.0000
    40 H15     33.2901   9.2276  64.1768   H         1 RES1   0.0000
    41 H16     33.5977   8.6226  66.4531   H         1 RES1   0.0000
    42 H17     25.7607   3.0230  63.8239   H         1 RES1   0.0000
@<TRIPOS>BOND
     1     1     2    1
     2     1    24    1
     3     2     3    1
     4     3     4    1
     5     3    23    1
     6     4     5   am
     7     5     6    2
     8     5     7    1
     9     7     8    2
    10     7    11    1
    11     8     9    1
    12     9    10    1
    13    10    11    2
    14    11    12    1
    15    12    13   am
    16    13    14    2
    17    13    15    1
    18    15    16    2
    19    15    21    1
    20    16    17    1
    21    16    18    1
    22    18    19    2
    23    19    20    1
    24    20    21    2
    25    21    22    1
    26    23    25    1
    27    24    25    1
    28     1    26    1
    29     1    27    1
    30    12    28    1
    31    19    29    1
    32    18    30    1
    33    20    31    1
    34    23    32    1
    35    23    33    1
    36     3    34    1
    37     2    35    1
    38     2    36    1
    39     4    37    1
    40     9    38    1
    41    25    39    1
    42    25    40    1
    43    24    41    1
    44    10    42    1
@<TRIPOS>SUBSTRUCTURE
     1 RES1        1 GROUP             0 ****  ****    0  
@<TRIPOS>MOLECULE
4BCP:A:T3C1299
   108   114     1     0     0
SMALL
NO_CHARGES
****
Generated from the CSD

@<TRIPOS>ATOM
     1 C1      25.7624   9.3350  58.9493   C.3       1 RES1   0.0000
     2 N2      24.6335   8.7310  59.5963   N.pl3     1 RES1   0.0000
     3 C3      24.8525   7.8580  60.7144   C.2       1 RES1   0.0000
     4 N4      23.9185   7.2240  61.4424   N.2       1 RES1   0.0000
     5 C5      24.3725   6.4500  62.4524   C.2       1 RES1   0.0000
     6 C6      23.3905   5.6790  63.3564   C.3       1 RES1   0.0000
     7 C7      25.7744   6.4020  62.6194   C.2       1 RES1   0.0000
     8 C8      26.5614   5.7120  63.5444   C.2       1 RES1   0.0000
     9 N9      27.5124   6.4080  64.2314   N.2       1 RES1   0.0000
    10 C10     28.3134   5.8030  65.1145   C.2       1 RES1   0.0000
    11 N11     29.3234   6.5880  65.8535   N.pl3     1 RES1   0.0000
    12 C12     29.9473   7.7390  65.3225   C.2       1 RES1   0.0000
    13 C13     31.2363   8.1200  65.8255   C.2       1 RES1   0.0000
    14 C14     31.8793   9.2560  65.3245   C.2       1 RES1   0.0000
    15 C15     31.2593  10.0320  64.3234   C.2       1 RES1   0.0000
    16 C16     29.9883   9.6640  63.8224   C.2       1 RES1   0.0000
    17 N17     29.3434  10.4890  62.7754   N.pl3     1 RES1   0.0000
    18 C18     28.2094  11.3690  62.9124   C.3       1 RES1   0.0000
    19 C19     28.5464  12.7820  62.5714   C.3       1 RES1   0.0000
    20 C20     29.0434  12.8900  61.1594   C.3       1 RES1   0.0000
    21 N21     28.5714  11.8050  60.3453   N.3       1 RES1   0.0000
    22 C22     29.4623  10.6840  60.3093   C.3       1 RES1   0.0000
    23 C23     29.4123   9.7910  61.5204   C.3       1 RES1   0.0000
    24 C24     29.3364   8.5040  64.3374   C.2       1 RES1   0.0000
    25 N25     28.1944   4.4650  65.3605   N.2       1 RES1   0.0000
    26 C26     27.2614   3.7120  64.6944   C.2       1 RES1   0.0000
    27 C27     26.4284   4.3210  63.7714   C.2       1 RES1   0.0000
    28 C28     25.4154   3.5110  63.0424   C.1       1 RES1   0.0000
    29 N29     24.6415   2.8920  62.4894   N.1       1 RES1   0.0000
    30 S30     26.3944   7.4220  61.3814   S.3       1 RES1   0.0000
    31 C31     25.8514   9.2780  58.8653   C.3       1 RES1   0.0000
    32 N32     24.7085   8.6440  59.4573   N.pl3     1 RES1   0.0000
    33 C33     24.8954   7.7850  60.5913   C.2       1 RES1   0.0000
    34 N34     23.9365   7.1840  61.3164   N.2       1 RES1   0.0000
    35 C35     24.3605   6.4160  62.3454   C.2       1 RES1   0.0000
    36 C36     23.3565   5.6780  63.2524   C.3       1 RES1   0.0000
    37 C37     25.7564   6.3410  62.5314   C.2       1 RES1   0.0000
    38 C38     26.4964   5.6420  63.4894   C.2       1 RES1   0.0000
    39 N39     27.3914   6.3240  64.2614   N.2       1 RES1   0.0000
    40 C40     28.1364   5.6910  65.1745   C.2       1 RES1   0.0000
    41 N41     29.0774   6.4630  66.0075   N.pl3     1 RES1   0.0000
    42 C42     29.9013   7.4930  65.5035   C.2       1 RES1   0.0000
    43 C43     30.0083   7.7500  64.0944   C.2       1 RES1   0.0000
    44 C44     30.8353   8.7810  63.6304   C.2       1 RES1   0.0000
    45 C45     31.5603   9.5710  64.5464   C.2       1 RES1   0.0000
    46 C46     31.4493   9.3210  65.9355   C.2       1 RES1   0.0000
    47 N47     32.2043  10.1410  66.9045   N.3       1 RES1   0.0000
    48 C48     32.2993  11.5760  66.9565   C.3       1 RES1   0.0000
    49 C49     33.6233  12.0160  67.4905   C.3       1 RES1   0.0000
    50 C50     34.5172  10.8480  67.7965   C.3       1 RES1   0.0000
    51 N51     34.1972  10.2170  69.0445   N.3       1 RES1   0.0000
    52 C52     33.2323   9.1640  68.9265   C.3       1 RES1   0.0000
    53 C53     31.9763   9.5640  68.2015   C.3       1 RES1   0.0000
    54 C54     30.6103   8.2710  66.4035   C.2       1 RES1   0.0000
    55 N55     28.0094   4.3430  65.3705   N.2       1 RES1   0.0000
    56 C56     27.1304   3.6070  64.6174   C.2       1 RES1   0.0000
    57 C57     26.3584   4.2440  63.6614   C.2       1 RES1   0.0000
    58 C58     25.4024   3.4570  62.8354   C.1       1 RES1   0.0000
    59 N59     24.6715   2.8570  62.2084   N.1       1 RES1   0.0000
    60 S60     26.4184   7.3260  61.2884   S.3       1 RES1   0.0000
    61 H1      32.8581   9.5413  65.7071   H         1 RES1   0.0000
    62 H2      31.7604  10.9173  63.9347   H         1 RES1   0.0000
    63 H3      26.5491   8.5174  58.5179   H         1 RES1   0.0000
    64 H4      25.5316   9.8892  58.0227   H         1 RES1   0.0000
    65 H5      26.3410   9.9086  59.6060   H         1 RES1   0.0000
    66 H6      22.7622   4.9906  62.6521   H         1 RES1   0.0000
    67 H7      23.8982   5.1194  64.0143   H         1 RES1   0.0000
    68 H8      22.6997   6.4025  63.7316   H         1 RES1   0.0000
    69 H9      22.8034   4.9905  62.7504   H         1 RES1   0.0000
    70 H10     23.9493   5.1184  64.1043   H         1 RES1   0.0000
    71 H11     22.7249   6.3834  63.8532   H         1 RES1   0.0000
    72 H12     35.5472  11.1992  67.8379   H         1 RES1   0.0000
    73 H13     34.4159  10.1135  66.9989   H         1 RES1   0.0000
    74 H14     32.2043  10.3718  64.1860   H         1 RES1   0.0000
    75 H15     30.1323  12.8779  61.1667   H         1 RES1   0.0000
    76 H16     28.6937  13.8291  60.7331   H         1 RES1   0.0000
    77 H17     27.8589  11.3312  63.9428   H         1 RES1   0.0000
    78 H18     27.4180  11.0271  62.2470   H         1 RES1   0.0000
    79 H19     23.7799   8.8011  59.0788   H         1 RES1   0.0000
    80 H20     29.5815   6.2859  66.7875   H         1 RES1   0.0000
    81 H21     33.8272  10.9217  69.6743   H         1 RES1   0.0000
    82 H22     26.4179   8.5566  58.5615   H         1 RES1   0.0000
    83 H23     25.4177   9.9617  58.1281   H         1 RES1   0.0000
    84 H24     26.3086   9.9452  59.6671   H         1 RES1   0.0000
    85 H25     23.6917   8.9186  59.2676   H         1 RES1   0.0000
    86 H26     29.3207  13.1372  63.2498   H         1 RES1   0.0000
    87 H27     27.6552  13.3978  62.6835   H         1 RES1   0.0000
    88 H28     32.9596   8.8354  69.9283   H         1 RES1   0.0000
    89 H29     33.6915   8.3377  68.3859   H         1 RES1   0.0000
    90 H30     29.1359   6.2419  66.9964   H         1 RES1   0.0000
    91 H31     31.3565   8.6773  68.0769   H         1 RES1   0.0000
    92 H32     31.4470  10.2940  68.8121   H         1 RES1   0.0000
    93 H33     30.5256   8.0788  67.4721   H         1 RES1   0.0000
    94 H34     31.5114  11.9600  67.6027   H         1 RES1   0.0000
    95 H35     32.1719  11.9761  65.9517   H         1 RES1   0.0000
    96 H36     33.4630  12.5862  68.4043   H         1 RES1   0.0000
    97 H37     34.1102  12.6478  66.7491   H         1 RES1   0.0000
    98 H38     29.4461   7.1429  63.3863   H         1 RES1   0.0000
    99 H39     27.0409   2.5325  64.7701   H         1 RES1   0.0000
   100 H40     30.9184   8.9726  62.5616   H         1 RES1   0.0000
   101 H41     27.1766   2.6441  64.8899   H         1 RES1   0.0000
   102 H42     28.3570   8.2177  63.9569   H         1 RES1   0.0000
   103 H43     28.5328   9.1542  61.4370   H         1 RES1   0.0000
   104 H44     30.3089   9.1729  61.5241   H         1 RES1   0.0000
   105 H45     30.4784  11.0633  60.2112   H         1 RES1   0.0000
   106 H46     29.2134  10.0828  59.4361   H         1 RES1   0.0000
   107 H47     31.7151   7.5224  66.5998   H         1 RES1   0.0000
   108 H48     28.4466  12.1460  59.3975   H         1 RES1   0.0000
@<TRIPOS>BOND
     1     1     2    1
     2     2     3    1
     3     3     4    2
     4     3    30    1
     5     4     5    1
     6     5     6    1
     7     5     7    2
     8     7     8    1
     9     7    30    1
    10     8     9    2
    11     8    27    1
    12     9    10    1
    13    10    11    1
    14    10    25    2
    15    11    12    1
    16    12    13    2
    17    12    24    1
    18    13    14    1
    19    14    15    2
    20    15    16    1
    21    16    17    1
    22    16    24    2
    23    17    18    1
    24    17    23    1
    25    18    19    1
    26    19    20    1
    27    20    21    1
    28    21    22    1
    29    22    23    1
    30    25    26    1
    31    26    27    2
    32    27    28    1
    33    28    29    3
    34    31    32    1
    35    32    33    1
    36    33    34    2
    37    33    60    1
    38    34    35    1
    39    35    36    1
    40    35    37    2
    41    37    38    1
    42    37    60    1
    43    38    39    2
    44    38    57    1
    45    39    40    1
    46    40    41    1
    47    40    55    2
    48    41    42    1
    49    42    43    2
    50    42    54    1
    51    43    44    1
    52    44    45    2
    53    45    46    1
    54    46    47    1
    55    46    54    2
    56    47    48    1
    57    47    53    1
    58    48    49    1
    59    49    50    1
    60    50    51    1
    61    51    52    1
    62    52    53    1
    63    55    56    1
    64    56    57    2
    65    57    58    1
    66    58    59    3
    67    14    61    1
    68    15    62    1
    69    31    63    1
    70    31    64    1
    71    31    65    1
    72    36    66    1
    73    36    67    1
    74    36    68    1
    75     6    69    1
    76     6    70    1
    77     6    71    1
    78    50    72    1
    79    50    73    1
    80    45    74    1
    81    20    75    1
    82    20    76    1
    83    18    77    1
    84    18    78    1
    85    32    79    1
    86    11    80    1
    87    51    81    1
    88     1    82    1
    89     1    83    1
    90     1    84    1
    91     2    85    1
    92    19    86    1
    93    19    87    1
    94    52    88    1
    95    52    89    1
    96    41    90    1
    97    53    91    1
    98    53    92    1
    99    54    93    1
   100    48    94    1
   101    48    95    1
   102    49    96    1
   103    49    97    1
   104    43    98    1
   105    56    99    1
   106    44   100    1
   107    26   101    1
   108    24   102    1
   109    23   103    1
   110    23   104    1
   111    22   105    1
   112    22   106    1
   113    13   107    1
   114    21   108    1
@<TRIPOS>SUBSTRUCTURE
     1 RES1        1 GROUP             0 ****  ****    0  
@<TRIPOS>MOLECULE
2VTL:A:LZ51299
    23    24     1     0     0
SMALL
NO_CHARGES
****
Generated from the CSD

@<TRIPOS>ATOM
     1 O1      27.9018   7.3369  64.3303   O.2       1 RES1   0.0000
     2 C2      28.3448   6.3719  64.8823   C.2       1 RES1   0.0000
     3 N3      29.5008   6.3929  65.5723   N.am      1 RES1   0.0000
     4 C4      30.4338   7.4359  65.6053   C.2       1 RES1   0.0000
     5 C5      30.7088   8.1759  64.4543   C.2       1 RES1   0.0000
     6 C6      31.6268   9.2069  64.4923   C.2       1 RES1   0.0000
     7 C7      32.2828   9.5029  65.6723   C.2       1 RES1   0.0000
     8 C8      32.0178   8.7749  66.8153   C.2       1 RES1   0.0000
     9 C9      31.1048   7.7429  66.7843   C.2       1 RES1   0.0000
    10 C10     27.6648   5.0749  64.7923   C.2       1 RES1   0.0000
    11 C11     26.5188   4.7749  64.0663   C.2       1 RES1   0.0000
    12 C12     26.2978   3.4619  64.2833   C.2       1 RES1   0.0000
    13 N13     27.2828   3.0280  65.0883   N.pl3     1 RES1   0.0000
    14 N14     28.1468   4.0239  65.4023   N.2       1 RES1   0.0000
    15 H1      31.8336   9.7860  63.5936   H         1 RES1   0.0000
    16 H2      27.3689   2.0726  65.4200   H         1 RES1   0.0000
    17 H3      25.4781   2.8673  63.8828   H         1 RES1   0.0000
    18 H4      25.9266   5.4534  63.4541   H         1 RES1   0.0000
    19 H5      32.5319   9.0170  67.7443   H         1 RES1   0.0000
    20 H6      33.0106  10.3125  65.7007   H         1 RES1   0.0000
    21 H7      30.9080   7.1656  67.6865   H         1 RES1   0.0000
    22 H8      29.7176   5.5692  66.1243   H         1 RES1   0.0000
    23 H9      30.1974   7.9393  63.5224   H         1 RES1   0.0000
@<TRIPOS>BOND
     1     1     2    2
     2     2     3   am
     3     2    10    1
     4     3     4    1
     5     4     5    2
     6     4     9    1
     7     5     6    1
     8     6     7    2
     9     7     8    1
    10     8     9    2
    11    10    11    1
    12    10    14    2
    13    11    12    2
    14    12    13    1
    15    13    14    1
    16     6    15    1
    17    13    16    1
    18    12    17    1
    19    11    18    1
    20     8    19    1
    21     7    20    1
    22     9    21    1
    23     3    22    1
    24     5    23    1
@<TRIPOS>SUBSTRUCTURE
     1 RES1        1 GROUP             0 ****  ****    0  
@<TRIPOS>MOLECULE
2VTI:A:LZ31299
    34    36     1     0     0
SMALL
NO_CHARGES
****
Generated from the CSD

@<TRIPOS>ATOM
     1 N1      29.5313   6.5228  65.3653   N.am      1 RES1   0.0000
     2 C2      28.3393   6.6058  64.7833   C.2       1 RES1   0.0000
     3 C3      27.6253   5.3398  64.6063   C.2       1 RES1   0.0000
     4 C4      25.7034   5.8228  62.9733   C.2       1 RES1   0.0000
     5 C5      24.6414   5.2279  62.3134   C.2       1 RES1   0.0000
     6 C6      24.4044   3.8709  62.4604   C.2       1 RES1   0.0000
     7 C7      25.2294   3.1049  63.2613   C.2       1 RES1   0.0000
     8 C8      26.5174   5.0649  63.8103   C.2       1 RES1   0.0000
     9 O9      27.8753   7.6758  64.3603   O.2       1 RES1   0.0000
    10 N10     28.0783   4.2259  65.1973   N.2       1 RES1   0.0000
    11 N11     27.2523   3.2309  64.7913   N.pl3     1 RES1   0.0000
    12 C12     30.6003   8.2638  64.0713   C.2       1 RES1   0.0000
    13 C13     31.5312   9.2707  63.9593   C.2       1 RES1   0.0000
    14 C14     32.3352   9.5897  65.0393   C.2       1 RES1   0.0000
    15 C15     32.2142   8.8927  66.2293   C.2       1 RES1   0.0000
    16 C16     31.2822   7.8768  66.3373   C.2       1 RES1   0.0000
    17 S17     33.5492  10.8487  64.8733   S.o2      1 RES1   0.0000
    18 O18     34.5042  10.3667  63.9303   O.2       1 RES1   0.0000
    19 O19     34.0012  11.1967  66.1993   O.2       1 RES1   0.0000
    20 N20     32.8562  12.1537  64.2443   N.pl3     1 RES1   0.0000
    21 C21     30.4803   7.5488  65.2623   C.2       1 RES1   0.0000
    22 C22     26.2874   3.6949  63.9393   C.2       1 RES1   0.0000
    23 H1      29.7611   5.6915  65.9004   H         1 RES1   0.0000
    24 H2      23.5658   3.4068  61.9434   H         1 RES1   0.0000
    25 H3      23.9915   5.8276  61.6779   H         1 RES1   0.0000
    26 H4      25.9021   6.8849  62.8373   H         1 RES1   0.0000
    27 H5      29.9552   8.0245  63.2272   H         1 RES1   0.0000
    28 H6      27.3387   2.2625  65.0829   H         1 RES1   0.0000
    29 H7      25.0493   2.0355  63.3610   H         1 RES1   0.0000
    30 H8      33.4072  12.9890  64.0746   H         1 RES1   0.0000
    31 H9      31.8672  12.1432  64.0165   H         1 RES1   0.0000
    32 H10     31.1802   7.3327  67.2751   H         1 RES1   0.0000
    33 H11     32.8504   9.1434  67.0769   H         1 RES1   0.0000
    34 H12     31.6351   9.8157  63.0222   H         1 RES1   0.0000
@<TRIPOS>BOND
     1     1     2   am
     2     1    21    1
     3     2     3    1
     4     2     9    2
     5     3     8    1
     6     3    10    2
     7     4     5    2
     8     4     8    1
     9     5     6    1
    10     6     7    2
    11     7    22    1
    12     8    22    2
    13    10    11    1
    14    11    22    1
    15    12    13    2
    16    12    21    1
    17    13    14    1
    18    14    15    2
    19    14    17    1
    20    15    16    1
    21    16    21    2
    22    17    18    2
    23    17    19    2
    24    17    20    1
    25     1    23    1
    26     6    24    1
    27     5    25    1
    28     4    26    1
    29    12    27    1
    30    11    28    1
    31     7    29    1
    32    20    30    1
    33    20    31    1
    34    16    32    1
    35    15    33    1
    36    13    34    1
@<TRIPOS>SUBSTRUCTURE
     1 RES1        1 GROUP             0 ****  ****    0  
@<TRIPOS>MOLECULE
3R8Z:A:Z63440
    32    33     1     0     0
SMALL
NO_CHARGES
****
Generated from the CSD

@<TRIPOS>ATOM
     1 N1      28.4254   4.3939  65.4382   N.2       1 RES1   0.0000
     2 C2      27.4204   4.0409  64.6382   C.2       1 RES1   0.0000
     3 N3      27.0454   2.7559  64.5612   N.pl3     1 RES1   0.0000
     4 C4      26.8384   5.0948  63.9182   C.2       1 RES1   0.0000
     5 C5      25.7795   4.9798  63.0122   C.2       1 RES1   0.0000
     6 C6      25.1665   6.1168  62.2492   C.2       1 RES1   0.0000
     7 C7      25.9575   7.0488  61.5032   C.2       1 RES1   0.0000
     8 C8      25.3145   8.1017  60.8012   C.2       1 RES1   0.0000
     9 N9      23.9335   8.2147  60.8452   N.2       1 RES1   0.0000
    10 C10     23.1385   7.3338  61.5542   C.2       1 RES1   0.0000
    11 C11     23.7365   6.2658  62.2722   C.2       1 RES1   0.0000
    12 O12     25.2215   3.7669  62.7662   O.3       1 RES1   0.0000
    13 S13     27.6244   6.5948  64.3032   S.3       1 RES1   0.0000
    14 C14     28.6654   5.7118  65.3772   C.2       1 RES1   0.0000
    15 N15     29.6704   6.2698  66.1211   N.2       1 RES1   0.0000
    16 C16     29.9914   7.6788  65.9882   C.3       1 RES1   0.0000
    17 C17     31.2563   7.8557  65.2082   C.3       1 RES1   0.0000
    18 C18     31.2583   7.8497  63.7452   C.3       1 RES1   0.0000
    19 H1      24.8549   3.3939  63.6103   H         1 RES1   0.0000
    20 H2      30.6251   8.6561  63.3780   H         1 RES1   0.0000
    21 H3      32.2752   7.9931  63.3830   H         1 RES1   0.0000
    22 H4      30.8760   6.8955  63.3856   H         1 RES1   0.0000
    23 H5      23.1192   5.5667  62.8345   H         1 RES1   0.0000
    24 H6      22.0567   7.4590  61.5618   H         1 RES1   0.0000
    25 H7      26.2797   2.4863  63.9518   H         1 RES1   0.0000
    26 H8      27.5272   2.0527  65.1123   H         1 RES1   0.0000
    27 H9      25.9037   8.8179  60.2303   H         1 RES1   0.0000
    28 H10     27.0417   6.9507  61.4748   H         1 RES1   0.0000
    29 H11     30.1174   8.1129  66.9790   H         1 RES1   0.0000
    30 H12     29.1775   8.1848  65.4710   H         1 RES1   0.0000
    31 H13     31.9243   7.0541  65.5198   H         1 RES1   0.0000
    32 H14     31.6734   8.8146  65.5123   H         1 RES1   0.0000
@<TRIPOS>BOND
     1     1     2    2
     2     1    14    1
     3     2     3    1
     4     2     4    1
     5     4     5    2
     6     4    13    1
     7     5     6    1
     8     5    12    1
     9     6     7    2
    10     6    11    1
    11     7     8    1
    12     8     9    2
    13     9    10    1
    14    10    11    2
    15    13    14    1
    16    14    15    2
    17    15    16    1
    18    16    17    1
    19    17    18    1
    20    12    19    1
    21    18    20    1
    22    18    21    1
    23    18    22    1
    24    11    23    1
    25    10    24    1
    26     3    25    1
    27     3    26    1
    28     8    27    1
    29     7    28    1
    30    16    29    1
    31    16    30    1
    32    17    31    1
    33    17    32    1
@<TRIPOS>SUBSTRUCTURE
     1 RES1        1 GROUP             0 ****  ****    0  
@<TRIPOS>MOLECULE
3MY5:A:RFZ300
    32    34     1     0     0
SMALL
NO_CHARGES
****
Generated from the CSD

@<TRIPOS>ATOM
     1 C1      27.0696   7.4628  63.3591   C.2       1 RES1   0.0000
     2 C2      26.1116   6.5828  62.8852   C.2       1 RES1   0.0000
     3 C3      26.1126   5.2848  63.3721   C.2       1 RES1   0.0000
     4 Cl4     24.8886   4.1249  62.7832   Cl        1 RES1   0.0000
     5 C5      27.0456   4.8678  64.3121   C.2       1 RES1   0.0000
     6 Cl6     26.9906   3.1679  64.8781   Cl        1 RES1   0.0000
     7 C7      28.0106   5.7398  64.7971   C.2       1 RES1   0.0000
     8 C8      28.0106   7.0418  64.3061   C.2       1 RES1   0.0000
     9 N9      28.8056   8.0987  64.5731   N.2       1 RES1   0.0000
    10 C10     28.3716   9.1317  63.8221   C.2       1 RES1   0.0000
    11 N11     27.3106   8.7537  63.0882   N.pl3     1 RES1   0.0000
    12 C12     26.6226   9.6577  62.1122   C.3       1 RES1   0.0000
    13 O13     25.2706   9.8127  62.4812   O.3       1 RES1   0.0000
    14 C14     24.4986  10.1407  61.2832   C.3       1 RES1   0.0000
    15 C15     23.2687   9.2687  61.2192   C.3       1 RES1   0.0000
    16 O16     22.2567   9.8477  60.3982   O.3       1 RES1   0.0000
    17 C17     25.4636   9.9907  60.1002   C.3       1 RES1   0.0000
    18 O18     25.9936  11.2686  59.7572   O.3       1 RES1   0.0000
    19 C19     26.5706   9.1217  60.6882   C.3       1 RES1   0.0000
    20 O20     27.8156   9.2257  60.0332   O.3       1 RES1   0.0000
    21 H1      22.8751   9.1384  62.2262   H         1 RES1   0.0000
    22 H2      23.5444   8.2984  60.8088   H         1 RES1   0.0000
    23 H3      22.6057   9.9653  59.4760   H         1 RES1   0.0000
    24 H4      25.3759   6.9022  62.1486   H         1 RES1   0.0000
    25 H5      24.9847   9.5111  59.2478   H         1 RES1   0.0000
    26 H6      27.1116  10.6308  62.1144   H         1 RES1   0.0000
    27 H7      24.1843  11.1815  61.3460   H         1 RES1   0.0000
    28 H8      28.8156  10.1260  63.8118   H         1 RES1   0.0000
    29 H9      28.7421   5.4162  65.5361   H         1 RES1   0.0000
    30 H10     28.4974   8.7053  60.5336   H         1 RES1   0.0000
    31 H11     26.2503   8.0810  60.7010   H         1 RES1   0.0000
    32 H12     26.4802  11.6452  60.5366   H         1 RES1   0.0000
@<TRIPOS>BOND
     1     1     2    2
     2     1     8    1
     3     1    11    1
     4     2     3    1
     5     3     4    1
     6     3     5    2
     7     5     6    1
     8     5     7    1
     9     7     8    2
    10     8     9    1
    11     9    10    2
    12    10    11    1
    13    11    12    1
    14    12    13    1
    15    12    19    1
    16    13    14    1
    17    14    15    1
    18    14    17    1
    19    15    16    1
    20    17    18    1
    21    17    19    1
    22    19    20    1
    23    15    21    1
    24    15    22    1
    25    16    23    1
    26     2    24    1
    27    17    25    1
    28    12    26    1
    29    14    27    1
    30    10    28    1
    31     7    29    1
    32    20    30    1
    33    19    31    1
    34    18    32    1
@<TRIPOS>SUBSTRUCTURE
     1 RES1        1 GROUP             0 ****  ****    0  
@<TRIPOS>MOLECULE
2VTP:A:LZ91299
    37    39     1     0     0
SMALL
NO_CHARGES
****
Generated from the CSD

@<TRIPOS>ATOM
     1 F1      33.2009  10.5213  65.9062   F         1 RES1   0.0000
     2 C2      32.3848   9.4563  65.8072   C.2       1 RES1   0.0000
     3 C3      32.0008   8.8022  66.9632   C.2       1 RES1   0.0000
     4 C4      31.1738   7.7042  66.8682   C.2       1 RES1   0.0000
     5 C5      30.7228   7.2642  65.6142   C.2       1 RES1   0.0000
     6 N6      29.8498   6.1442  65.5202   N.am      1 RES1   0.0000
     7 C7      28.5957   6.2042  65.0192   C.2       1 RES1   0.0000
     8 O8      28.0947   7.2492  64.6272   O.2       1 RES1   0.0000
     9 C9      27.8657   4.9321  64.8822   C.2       1 RES1   0.0000
    10 N10     28.1617   3.8491  65.5542   N.2       1 RES1   0.0000
    11 N11     27.2797   2.9131  65.1232   N.pl3     1 RES1   0.0000
    12 C12     26.4507   3.3851  64.2162   C.2       1 RES1   0.0000
    13 C13     26.7947   4.6861  64.0192   C.2       1 RES1   0.0000
    14 N14     26.2687   5.6292  63.1543   N.am      1 RES1   0.0000
    15 C15     25.3097   5.4071  62.2433   C.2       1 RES1   0.0000
    16 O16     24.7586   4.3011  62.1273   O.2       1 RES1   0.0000
    17 C17     24.8986   6.6002  61.4133   C.2       1 RES1   0.0000
    18 C18     23.6306   7.1832  61.5513   C.2       1 RES1   0.0000
    19 F19     22.7616   6.6252  62.4173   F         1 RES1   0.0000
    20 C20     23.2546   8.3152  60.8193   C.2       1 RES1   0.0000
    21 C21     24.1586   8.8942  59.9304   C.2       1 RES1   0.0000
    22 C22     25.4277   8.3412  59.7694   C.2       1 RES1   0.0000
    23 C23     25.7897   7.2182  60.5123   C.2       1 RES1   0.0000
    24 F24     27.0217   6.7062  60.3693   F         1 RES1   0.0000
    25 C25     31.1148   7.9562  64.4572   C.2       1 RES1   0.0000
    26 C26     31.9538   9.0502  64.5552   C.2       1 RES1   0.0000
    27 H1      32.3472   9.1500  67.9353   H         1 RES1   0.0000
    28 H2      32.2713   9.5849  63.6612   H         1 RES1   0.0000
    29 H3      30.7574   7.6306  63.4814   H         1 RES1   0.0000
    30 H4      26.1327   8.7838  59.0672   H         1 RES1   0.0000
    31 H5      23.8734   9.7782  59.3620   H         1 RES1   0.0000
    32 H6      22.2603   8.7417  60.9437   H         1 RES1   0.0000
    33 H7      26.6411   6.5715  63.2145   H         1 RES1   0.0000
    34 H8      25.6477   2.8411  63.7211   H         1 RES1   0.0000
    35 H9      27.2610   1.9565  65.4619   H         1 RES1   0.0000
    36 H10     30.1893   5.2460  65.8492   H         1 RES1   0.0000
    37 H11     30.8688   7.1755  67.7701   H         1 RES1   0.0000
@<TRIPOS>BOND
     1     1     2    1
     2     2     3    2
     3     2    26    1
     4     3     4    1
     5     4     5    2
     6     5     6    1
     7     5    25    1
     8     6     7   am
     9     7     8    2
    10     7     9    1
    11     9    10    2
    12     9    13    1
    13    10    11    1
    14    11    12    1
    15    12    13    2
    16    13    14    1
    17    14    15   am
    18    15    16    2
    19    15    17    1
    20    17    18    2
    21    17    23    1
    22    18    19    1
    23    18    20    1
    24    20    21    2
    25    21    22    1
    26    22    23    2
    27    23    24    1
    28    25    26    2
    29     3    27    1
    30    26    28    1
    31    25    29    1
    32    22    30    1
    33    21    31    1
    34    20    32    1
    35    14    33    1
    36    12    34    1
    37    11    35    1
    38     6    36    1
    39     4    37    1
@<TRIPOS>SUBSTRUCTURE
     1 RES1        1 GROUP             0 ****  ****    0  
@<TRIPOS>MOLECULE
1PXL:A:CK4500
    37    39     1     0     0
SMALL
NO_CHARGES
****
Generated from the CSD

@<TRIPOS>ATOM
     1 F1      31.4428  12.9187  64.3954   F         1 RES1   0.0000
     2 C2      32.5428  12.0377  64.4584   C.3       1 RES1   0.0000
     3 F3      33.3838  12.4257  65.5274   F         1 RES1   0.0000
     4 F4      33.2528  12.0737  63.2534   F         1 RES1   0.0000
     5 C5      31.9728  10.5567  64.7004   C.2       1 RES1   0.0000
     6 C6      32.6378   9.6548  65.6254   C.2       1 RES1   0.0000
     7 C7      32.0978   8.3408  65.8544   C.2       1 RES1   0.0000
     8 C8      30.7689  10.1117  64.0054   C.2       1 RES1   0.0000
     9 C9      30.2339   8.8228  64.2284   C.2       1 RES1   0.0000
    10 C10     30.8519   7.9068  65.1414   C.2       1 RES1   0.0000
    11 N11     30.2649   6.5668  65.3914   N.pl3     1 RES1   0.0000
    12 C12     29.1559   5.6999  65.0314   C.2       1 RES1   0.0000
    13 N13     29.1149   4.5109  65.6064   N.2       1 RES1   0.0000
    14 C14     28.0789   3.6549  65.3014   C.2       1 RES1   0.0000
    15 C15     27.0279   3.9549  64.3934   C.2       1 RES1   0.0000
    16 N16     28.2079   6.0778  64.1594   N.2       1 RES1   0.0000
    17 C17     27.1199   5.2689  63.7874   C.2       1 RES1   0.0000
    18 C18     26.2049   5.8379  62.8293   C.2       1 RES1   0.0000
    19 S19     26.6149   7.4998  62.2653   S.3       1 RES1   0.0000
    20 C20     25.0109   5.4399  62.1683   C.2       1 RES1   0.0000
    21 C21     24.2689   4.0849  62.3203   C.3       1 RES1   0.0000
    22 N22     24.4639   6.3978  61.2863   N.2       1 RES1   0.0000
    23 C23     25.2489   7.5068  61.2823   C.2       1 RES1   0.0000
    24 C24     25.0529   8.7718  60.4973   C.3       1 RES1   0.0000
    25 H1      33.5416   9.9721  66.1435   H         1 RES1   0.0000
    26 H2      32.5940   7.6613  66.5457   H         1 RES1   0.0000
    27 H3      30.2754  10.7831  63.3043   H         1 RES1   0.0000
    28 H4      29.3338   8.5194  63.6958   H         1 RES1   0.0000
    29 H5      30.8535   6.0767  66.0575   H         1 RES1   0.0000
    30 H6      25.9116   8.9323  59.8471   H         1 RES1   0.0000
    31 H7      24.1507   8.6880  59.8931   H         1 RES1   0.0000
    32 H8      24.9542   9.6125  61.1824   H         1 RES1   0.0000
    33 H9      28.0647   2.6817  65.7898   H         1 RES1   0.0000
    34 H10     26.2218   3.2572  64.1715   H         1 RES1   0.0000
    35 H11     23.9686   3.9499  63.3583   H         1 RES1   0.0000
    36 H12     23.3855   4.0813  61.6835   H         1 RES1   0.0000
    37 H13     24.9320   3.2729  62.0257   H         1 RES1   0.0000
@<TRIPOS>BOND
     1     1     2    1
     2     2     3    1
     3     2     4    1
     4     2     5    1
     5     5     6    2
     6     5     8    1
     7     6     7    1
     8     7    10    2
     9     8     9    2
    10     9    10    1
    11    10    11    1
    12    11    12    1
    13    12    13    2
    14    12    16    1
    15    13    14    1
    16    14    15    2
    17    15    17    1
    18    16    17    2
    19    17    18    1
    20    18    19    1
    21    18    20    2
    22    19    23    1
    23    20    21    1
    24    20    22    1
    25    22    23    2
    26    23    24    1
    27     6    25    1
    28     7    26    1
    29     8    27    1
    30     9    28    1
    31    11    29    1
    32    24    30    1
    33    24    31    1
    34    24    32    1
    35    14    33    1
    36    15    34    1
    37    21    35    1
    38    21    36    1
    39    21    37    1
@<TRIPOS>SUBSTRUCTURE
     1 RES1        1 GROUP             0 ****  ****    0  
@<TRIPOS>MOLECULE
3R9O:A:Z71401
    41    43     1     0     0
SMALL
NO_CHARGES
****
Generated from the CSD

@<TRIPOS>ATOM
     1 C1      26.7335   4.9069  64.0194   C.2       1 RES1   0.0000
     2 C2      27.2425   3.8819  64.7764   C.2       1 RES1   0.0000
     3 N3      28.4095   4.1999  65.4514   N.2       1 RES1   0.0000
     4 C4      28.8055   5.4379  65.2194   C.2       1 RES1   0.0000
     5 S5      27.7305   6.3588  64.1424   S.3       1 RES1   0.0000
     6 C6      25.5245   4.9239  63.1594   C.2       1 RES1   0.0000
     7 N7      26.6985   2.6139  64.8864   N.pl3     1 RES1   0.0000
     8 N8      29.9796   5.9169  65.7554   N.pl3     1 RES1   0.0000
     9 O9      24.8875   3.8749  63.0274   O.2       1 RES1   0.0000
    10 C10     32.3166   9.3148  65.3184   C.2       1 RES1   0.0000
    11 C11     32.4736   8.4958  66.4905   C.2       1 RES1   0.0000
    12 C12     31.6606   7.3508  66.6585   C.2       1 RES1   0.0000
    13 C13     30.6886   7.0298  65.6534   C.2       1 RES1   0.0000
    14 C14     30.5406   7.8738  64.4894   C.2       1 RES1   0.0000
    15 C15     31.3486   9.0128  64.3234   C.2       1 RES1   0.0000
    16 S16     33.3686  10.7017  65.0844   S.o2      1 RES1   0.0000
    17 O17     34.4256  10.2737  64.1624   O.2       1 RES1   0.0000
    18 N18     32.4396  11.9187  64.3384   N.pl3     1 RES1   0.0000
    19 O19     33.7516  11.1727  66.4425   O.2       1 RES1   0.0000
    20 N20     25.1905   6.0919  62.5594   N.am      1 RES1   0.0000
    21 C21     21.9024   6.9578  59.9433   C.2       1 RES1   0.0000
    22 C22     23.1014   7.7458  59.9063   C.2       1 RES1   0.0000
    23 C23     24.1955   7.4438  60.7843   C.2       1 RES1   0.0000
    24 C24     24.0855   6.3528  61.7024   C.2       1 RES1   0.0000
    25 C25     22.8734   5.5719  61.7264   C.2       1 RES1   0.0000
    26 C26     21.7944   5.8699  60.8553   C.2       1 RES1   0.0000
    27 F27     23.2004   8.7648  59.0363   F         1 RES1   0.0000
    28 F28     20.6684   5.1119  60.8993   F         1 RES1   0.0000
    29 H1      22.7851   4.7405  62.4242   H         1 RES1   0.0000
    30 H2      25.8050   6.8783  62.7444   H         1 RES1   0.0000
    31 H3      21.0757   7.1919  59.2742   H         1 RES1   0.0000
    32 H4      25.1048   8.0422  60.7517   H         1 RES1   0.0000
    33 H5      33.2148   8.7561  67.2447   H         1 RES1   0.0000
    34 H6      31.7711   6.7207  67.5398   H         1 RES1   0.0000
    35 H7      29.7966   7.6254  63.7340   H         1 RES1   0.0000
    36 H8      31.2344   9.6513  63.4486   H         1 RES1   0.0000
    37 H9      32.8625  12.8134  64.1128   H         1 RES1   0.0000
    38 H10     31.4631  11.7493  64.1194   H         1 RES1   0.0000
    39 H11     30.4093   5.2490  66.3874   H         1 RES1   0.0000
    40 H12     27.1477   1.9181  65.4732   H         1 RES1   0.0000
    41 H13     25.8504   2.3798  64.3802   H         1 RES1   0.0000
@<TRIPOS>BOND
     1     1     2    2
     2     1     5    1
     3     1     6    1
     4     2     3    1
     5     2     7    1
     6     3     4    2
     7     4     5    1
     8     4     8    1
     9     6     9    2
    10     6    20   am
    11     8    13    1
    12    10    11    2
    13    10    15    1
    14    10    16    1
    15    11    12    1
    16    12    13    2
    17    13    14    1
    18    14    15    2
    19    16    17    2
    20    16    18    1
    21    16    19    2
    22    20    24    1
    23    21    22    2
    24    21    26    1
    25    22    23    1
    26    22    27    1
    27    23    24    2
    28    24    25    1
    29    25    26    2
    30    26    28    1
    31    25    29    1
    32    20    30    1
    33    21    31    1
    34    23    32    1
    35    11    33    1
    36    12    34    1
    37    14    35    1
    38    15    36    1
    39    18    37    1
    40    18    38    1
    41     8    39    1
    42     7    40    1
    43     7    41    1
@<TRIPOS>SUBSTRUCTURE
     1 RES1        1 GROUP             0 ****  ****    0  
@<TRIPOS>MOLECULE
3QXO:A:X65668
    38    39     1     0     0
SMALL
USER_CHARGES
****
Generated from the CSD

@<TRIPOS>ATOM
     1 C1      28.3044   7.9871  63.6343   C.2       1 RES1   0.0000
     2 C2      27.0074   8.3121  63.1793   C.2       1 RES1   0.0000
     3 C3      25.9045   7.4111  63.3753   C.2       1 RES1   0.0000
     4 C4      26.1575   6.1751  64.0433   C.2       1 RES1   0.0000
     5 C5      27.4594   5.7951  64.5223   C.2       1 RES1   0.0000
     6 C6      28.5794   6.7301  64.3303   C.2       1 RES1   0.0000
     7 N7      29.8104   6.3621  64.6963   N.pl3     1 RES1   0.0000
     8 N8      24.6745   7.7031  62.9563   N.pl3     1 RES1   1.0000
     9 O9      23.6545   6.8571  63.1493   O.3       1 RES1  -1.0000
    10 O10     24.4275   8.7521  62.3823   O.2       1 RES1   0.0000
    11 C11     27.6134   4.5291  65.0603   C.2       1 RES1   0.0000
    12 N12     26.8274   3.4780  64.7063   N.am      1 RES1   0.0000
    13 O13     28.5784   4.2881  65.9613   O.2       1 RES1   0.0000
    14 C14     31.0544   7.0781  64.4583   C.3       1 RES1   0.0000
    15 C15     31.8373  10.3281  67.2332   C.2       1 RES1   0.0000
    16 C16     32.0983  10.4791  65.8453   C.2       1 RES1   0.0000
    17 C17     31.8393   9.4161  64.9573   C.2       1 RES1   0.0000
    18 C18     31.3164   8.1881  65.4423   C.2       1 RES1   0.0000
    19 C19     31.0504   8.0291  66.8503   C.2       1 RES1   0.0000
    20 C20     31.3104   9.1041  67.7422   C.2       1 RES1   0.0000
    21 S21     32.1683  11.6551  68.3112   S.o2      1 RES1   0.0000
    22 O22     33.2033  11.2421  69.5032   O.2       1 RES1   0.0000
    23 O23     32.7293  12.8402  67.5932   O.2       1 RES1   0.0000
    24 N24     30.9654  12.1502  69.0492   N.pl3     1 RES1   0.0000
    25 H1      32.0411   9.5369  63.8940   H         1 RES1   0.0000
    26 H2      32.4993  11.4181  65.4667   H         1 RES1   0.0000
    27 H3      31.0170   7.5078  63.4584   H         1 RES1   0.0000
    28 H4      31.8765   6.3664  64.5171   H         1 RES1   0.0000
    29 H5      30.6518   7.0889  67.2287   H         1 RES1   0.0000
    30 H6      31.1089   8.9944  68.8068   H         1 RES1   0.0000
    31 H7      26.8401   9.2609  62.6716   H         1 RES1   0.0000
    32 H8      25.3265   5.4883  64.1973   H         1 RES1   0.0000
    33 H9      29.8865   5.4828  65.1975   H         1 RES1   0.0000
    34 H10     29.1192   8.6890  63.4629   H         1 RES1   0.0000
    35 H11     26.9778   2.5671  65.1281   H         1 RES1   0.0000
    36 H12     26.0901   3.6041  64.0202   H         1 RES1   0.0000
    37 H13     31.0530  12.9219  69.7027   H         1 RES1   0.0000
    38 H14     30.0615  11.7145  68.8966   H         1 RES1   0.0000
@<TRIPOS>BOND
     1     1     2    2
     2     1     6    1
     3     2     3    1
     4     3     4    2
     5     3     8    1
     6     4     5    1
     7     5     6    2
     8     5    11    1
     9     6     7    1
    10     7    14    1
    11     8     9    1
    12     8    10    2
    13    11    12   am
    14    11    13    2
    15    14    18    1
    16    15    16    2
    17    15    20    1
    18    15    21    1
    19    16    17    1
    20    17    18    2
    21    18    19    1
    22    19    20    2
    23    21    22    2
    24    21    23    2
    25    21    24    1
    26    17    25    1
    27    16    26    1
    28    14    27    1
    29    14    28    1
    30    19    29    1
    31    20    30    1
    32     2    31    1
    33     4    32    1
    34     7    33    1
    35     1    34    1
    36    12    35    1
    37    12    36    1
    38    24    37    1
    39    24    38    1
@<TRIPOS>SUBSTRUCTURE
     1 RES1        1 GROUP             0 ****  ****    0  
@<TRIPOS>MOLECULE
1DI8:A:DTQ500
    37    39     1     0     0
SMALL
NO_CHARGES
****
Generated from the CSD

@<TRIPOS>ATOM
     1 N1      26.9554   4.0521  64.2947   N.2       1 RES1   0.0000
     2 C2      27.7343   3.3971  65.2347   C.2       1 RES1   0.0000
     3 N3      28.8293   4.0151  65.8317   N.2       1 RES1   0.0000
     4 C4      29.2273   5.3431  65.4797   C.2       1 RES1   0.0000
     5 C5      28.4143   6.1072  64.4057   C.2       1 RES1   0.0000
     6 C6      27.2034   5.4101  63.8667   C.2       1 RES1   0.0000
     7 C7      30.3823   5.9802  66.1247   C.2       1 RES1   0.0000
     8 C8      30.7923   7.3562  65.7707   C.2       1 RES1   0.0000
     9 C9      30.0673   8.0832  64.6667   C.2       1 RES1   0.0000
    10 C10     28.8903   7.4382  63.9957   C.2       1 RES1   0.0000
    11 N11     26.3174   6.0272  62.9487   N.pl3     1 RES1   0.0000
    12 C12     25.1484   5.6631  62.2587   C.2       1 RES1   0.0000
    13 C13     24.5914   6.7212  61.3846   C.2       1 RES1   0.0000
    14 C14     23.3504   6.4932  60.6146   C.2       1 RES1   0.0000
    15 C15     22.6925   5.1811  60.6446   C.2       1 RES1   0.0000
    16 C16     23.2234   4.1071  61.5047   C.2       1 RES1   0.0000
    17 C17     24.4224   4.3511  62.3257   C.2       1 RES1   0.0000
    18 O18     22.7895   7.5052  59.8666   O.3       1 RES1   0.0000
    19 O19     31.8202   8.0702  66.4367   O.3       1 RES1   0.0000
    20 C20     32.8042   7.4602  67.2817   C.3       1 RES1   0.0000
    21 O21     30.5313   9.3962  64.3487   O.3       1 RES1   0.0000
    22 C22     29.8723  10.1993  63.3637   C.3       1 RES1   0.0000
    23 H1      23.4386   7.8070  59.1784   H         1 RES1   0.0000
    24 H2      24.7867   3.5689  62.9901   H         1 RES1   0.0000
    25 H3      22.7306   3.1364  61.5329   H         1 RES1   0.0000
    26 H4      21.8112   5.0006  60.0309   H         1 RES1   0.0000
    27 H5      25.1028   7.6796  61.3082   H         1 RES1   0.0000
    28 H6      33.3758   6.7331  66.7069   H         1 RES1   0.0000
    29 H7      33.4753   8.2257  67.6685   H         1 RES1   0.0000
    30 H8      32.3091   6.9584  68.1117   H         1 RES1   0.0000
    31 H9      28.8384  10.3649  63.6629   H         1 RES1   0.0000
    32 H10     30.3827  11.1573  63.2757   H         1 RES1   0.0000
    33 H11     29.8946   9.6866  62.4032   H         1 RES1   0.0000
    34 H12     28.3791   7.9644  63.1909   H         1 RES1   0.0000
    35 H13     26.6003   6.9781  62.7340   H         1 RES1   0.0000
    36 H14     30.9465   5.4302  66.8764   H         1 RES1   0.0000
    37 H15     27.4839   2.3745  65.5131   H         1 RES1   0.0000
@<TRIPOS>BOND
     1     1     2    2
     2     1     6    1
     3     2     3    1
     4     3     4    2
     5     4     5    1
     6     4     7    1
     7     5     6    2
     8     5    10    1
     9     6    11    1
    10     7     8    2
    11     8     9    1
    12     8    19    1
    13     9    10    2
    14     9    21    1
    15    11    12    1
    16    12    13    2
    17    12    17    1
    18    13    14    1
    19    14    15    2
    20    14    18    1
    21    15    16    1
    22    16    17    2
    23    19    20    1
    24    21    22    1
    25    18    23    1
    26    17    24    1
    27    16    25    1
    28    15    26    1
    29    13    27    1
    30    20    28    1
    31    20    29    1
    32    20    30    1
    33    22    31    1
    34    22    32    1
    35    22    33    1
    36    10    34    1
    37    11    35    1
    38     7    36    1
    39     2    37    1
@<TRIPOS>SUBSTRUCTURE
     1 RES1        1 GROUP             0 ****  ****    0  
@<TRIPOS>MOLECULE
3R9N:A:Z68529
    42    44     1     0     0
SMALL
USER_CHARGES
****
Generated from the CSD

@<TRIPOS>ATOM
     1 C1      25.5876   9.5687  60.3995   C.2       1 RES1   0.0000
     2 N2      25.6156  10.7527  62.5884   N.pl3     1 RES1   1.0000
     3 O3      25.7526  10.7897  63.9174   O.3       1 RES1  -1.0000
     4 S4      28.3266   7.1628  64.2574   S.3       1 RES1   0.0000
     5 C5      25.7296   9.6497  61.9154   C.2       1 RES1   0.0000
     6 N6      28.6766   4.8419  65.3993   N.2       1 RES1   0.0000
     7 O7      25.3807  11.8107  62.0494   O.2       1 RES1   0.0000
     8 C8      26.0206   8.3338  62.6214   C.2       1 RES1   0.0000
     9 N9      30.0576   6.5838  66.2473   N.pl3     1 RES1   0.0000
    10 O10     25.7706   4.8069  62.2764   O.2       1 RES1   0.0000
    11 C11     26.1586   7.1098  61.9414   C.2       1 RES1   0.0000
    12 N12     27.1536   3.4249  64.2664   N.pl3     1 RES1   0.0000
    13 C13     26.0046   7.1028  60.4135   C.2       1 RES1   0.0000
    14 C14     25.7386   8.2538  59.6995   C.2       1 RES1   0.0000
    15 C15     26.4226   5.9248  62.6224   C.2       1 RES1   0.0000
    16 C16     27.4186   5.8028  63.7414   C.2       1 RES1   0.0000
    17 C17     27.7276   4.6489  64.4644   C.2       1 RES1   0.0000
    18 C18     29.0906   6.1348  65.3973   C.2       1 RES1   0.0000
    19 C19     30.6876   7.8888  66.0173   C.3       1 RES1   0.0000
    20 C20     31.7496   7.8368  64.8313   C.3       1 RES1   0.0000
    21 C21     32.4046   9.2247  64.6044   C.3       1 RES1   0.0000
    22 C22     33.0565   9.7537  65.9333   C.3       1 RES1   0.0000
    23 C23     32.0526   9.7587  67.1313   C.3       1 RES1   0.0000
    24 C24     31.3716   8.3718  67.3333   C.3       1 RES1   0.0000
    25 H1      32.1257   7.6445  67.6305   H         1 RES1   0.0000
    26 H2      30.6191   8.4550  68.1161   H         1 RES1   0.0000
    27 H3      31.2459   7.5278  63.9166   H         1 RES1   0.0000
    28 H4      32.5253   7.1142  65.0804   H         1 RES1   0.0000
    29 H5      29.9103   8.6037  65.7515   H         1 RES1   0.0000
    30 H6      30.3415   6.0155  67.0389   H         1 RES1   0.0000
    31 H7      26.1272   8.3395  63.7052   H         1 RES1   0.0000
    32 H8      26.4401   3.3082  63.5540   H         1 RES1   0.0000
    33 H9      27.4407   2.6323  64.8317   H         1 RES1   0.0000
    34 H10     25.6376   8.2050  58.6163   H         1 RES1   0.0000
    35 H11     31.6433   9.9298  64.2740   H         1 RES1   0.0000
    36 H12     33.1741   9.1363  63.8390   H         1 RES1   0.0000
    37 H13     31.2816  10.5036  66.9399   H         1 RES1   0.0000
    38 H14     32.5923  10.0203  68.0403   H         1 RES1   0.0000
    39 H15     33.4090  10.7708  65.7687   H         1 RES1   0.0000
    40 H16     33.9003   9.1138  66.1873   H         1 RES1   0.0000
    41 H17     25.3759  10.4691  59.8247   H         1 RES1   0.0000
    42 H18     26.1084   6.1609  59.8769   H         1 RES1   0.0000
@<TRIPOS>BOND
     1     1     5    2
     2     1    14    1
     3     2     3    1
     4     2     5    1
     5     2     7    2
     6     4    16    1
     7     4    18    1
     8     5     8    1
     9     6    17    1
    10     6    18    2
    11     8    11    2
    12     9    18    1
    13     9    19    1
    14    10    15    2
    15    11    13    1
    16    11    15    1
    17    12    17    1
    18    13    14    2
    19    15    16    1
    20    16    17    2
    21    19    20    1
    22    19    24    1
    23    20    21    1
    24    21    22    1
    25    22    23    1
    26    23    24    1
    27    24    25    1
    28    24    26    1
    29    20    27    1
    30    20    28    1
    31    19    29    1
    32     9    30    1
    33     8    31    1
    34    12    32    1
    35    12    33    1
    36    14    34    1
    37    21    35    1
    38    21    36    1
    39    23    37    1
    40    23    38    1
    41    22    39    1
    42    22    40    1
    43     1    41    1
    44    13    42    1
@<TRIPOS>SUBSTRUCTURE
     1 RES1        1 GROUP             0 ****  ****    0  
@<TRIPOS>MOLECULE
3RKB:A:12Z457
    39    41     1     0     0
SMALL
NO_CHARGES
****
Generated from the CSD

@<TRIPOS>ATOM
     1 C1      26.7692   5.1971  63.8358   C.2       1 RES1   0.0000
     2 C2      27.2652   4.2001  64.6148   C.2       1 RES1   0.0000
     3 N3      28.3302   4.5871  65.4168   N.2       1 RES1   0.0000
     4 C4      28.6492   5.8591  65.2518   C.2       1 RES1   0.0000
     5 S5      27.6532   6.7021  64.0978   S.3       1 RES1   0.0000
     6 C6      25.6432   5.1101  62.8659   C.2       1 RES1   0.0000
     7 N7      26.7992   2.9031  64.6458   N.pl3     1 RES1   0.0000
     8 N8      29.6732   6.4811  65.8968   N.pl3     1 RES1   0.0000
     9 O9      24.9572   4.0661  62.8329   O.2       1 RES1   0.0000
    10 C10     24.6422   8.3652  60.1969   C.2       1 RES1   0.0000
    11 N11     23.6512   7.6962  60.8729   N.2       1 RES1   0.0000
    12 C12     23.9932   6.6631  61.7189   C.2       1 RES1   0.0000
    13 C13     25.3512   6.2481  61.9289   C.2       1 RES1   0.0000
    14 C14     26.3782   6.9591  61.2029   C.2       1 RES1   0.0000
    15 C15     26.0282   8.0332  60.3279   C.2       1 RES1   0.0000
    16 C16     31.6673   9.3512  64.3588   C.3       1 RES1   0.0000
    17 C17     31.0843   7.9272  64.5248   C.3       1 RES1   0.0000
    18 C18     30.1682   7.8292  65.7978   C.3       1 RES1   0.0000
    19 C19     30.9763   8.2352  67.0627   C.3       1 RES1   0.0000
    20 C20     31.5153   9.6862  66.9137   C.3       1 RES1   0.0000
    21 C21     32.4113   9.8182  65.6478   C.3       1 RES1   0.0000
    22 H1      32.7015  10.8611  65.5288   H         1 RES1   0.0000
    23 H2      33.3023   9.2065  65.7815   H         1 RES1   0.0000
    24 H3      27.4227   6.6754  61.3229   H         1 RES1   0.0000
    25 H4      32.1029   9.9406  67.7946   H         1 RES1   0.0000
    26 H5      30.6738  10.3722  66.8281   H         1 RES1   0.0000
    27 H6      31.8145   7.5514  67.1887   H         1 RES1   0.0000
    28 H7      30.3284   8.1802  67.9363   H         1 RES1   0.0000
    29 H8      23.1997   6.1397  62.2503   H         1 RES1   0.0000
    30 H9      31.9044   7.2175  64.6226   H         1 RES1   0.0000
    31 H10     30.4941   7.6807  63.6434   H         1 RES1   0.0000
    32 H11     29.3254   8.5091  65.6817   H         1 RES1   0.0000
    33 H12     26.7917   8.5817  59.7782   H         1 RES1   0.0000
    34 H13     30.8540  10.0443  64.1489   H         1 RES1   0.0000
    35 H14     32.3686   9.3515  63.5257   H         1 RES1   0.0000
    36 H15     24.3617   9.1822  59.5337   H         1 RES1   0.0000
    37 H16     27.2328   2.2226  65.2616   H         1 RES1   0.0000
    38 H17     26.0225   2.6286  64.0529   H         1 RES1   0.0000
    39 H18     30.1721   5.8960  66.5594   H         1 RES1   0.0000
@<TRIPOS>BOND
     1     1     2    2
     2     1     5    1
     3     1     6    1
     4     2     3    1
     5     2     7    1
     6     3     4    2
     7     4     5    1
     8     4     8    1
     9     6     9    2
    10     6    13    1
    11     8    18    1
    12    10    11    2
    13    10    15    1
    14    11    12    1
    15    12    13    2
    16    13    14    1
    17    14    15    2
    18    16    17    1
    19    16    21    1
    20    17    18    1
    21    18    19    1
    22    19    20    1
    23    20    21    1
    24    21    22    1
    25    21    23    1
    26    14    24    1
    27    20    25    1
    28    20    26    1
    29    19    27    1
    30    19    28    1
    31    12    29    1
    32    17    30    1
    33    17    31    1
    34    18    32    1
    35    15    33    1
    36    16    34    1
    37    16    35    1
    38    10    36    1
    39     7    37    1
    40     7    38    1
    41     8    39    1
@<TRIPOS>SUBSTRUCTURE
     1 RES1        1 GROUP             0 ****  ****    0  
@<TRIPOS>MOLECULE
3R7Y:A:Z04484
    46    48     1     0     0
SMALL
USER_CHARGES
****
Generated from the CSD

@<TRIPOS>ATOM
     1 N1      29.9383   6.3221  64.8211   N.pl3     1 RES1   0.0000
     2 N2      26.7853   3.6360  64.6381   N.am      1 RES1   0.0000
     3 N3      31.4582   9.2231  67.5892   N.2       1 RES1   0.0000
     4 N4      31.9472  10.5431  65.6191   N.2       1 RES1   0.0000
     5 N5      27.5043   9.6441  62.4900   N.pl3     1 RES1   0.0000
     6 N6      31.9032  11.4261  67.6952   N.pl3     1 RES1   0.0000
     7 N7      25.1394   7.8671  62.6070   N.pl3     1 RES1   1.0000
     8 C8      26.4304   6.3051  63.7831   C.2       1 RES1   0.0000
     9 C9      27.6473   5.8651  64.3691   C.2       1 RES1   0.0000
    10 C10     28.8063   6.7141  64.2961   C.2       1 RES1   0.0000
    11 C11     28.6933   7.9891  63.6441   C.2       1 RES1   0.0000
    12 C12     27.4813   8.4531  63.0550   C.2       1 RES1   0.0000
    13 C13     26.3004   7.5741  63.1181   C.2       1 RES1   0.0000
    14 C14     27.6813   4.6121  64.9921   C.2       1 RES1   0.0000
    15 C15     31.2772   6.9331  64.5341   C.3       1 RES1   0.0000
    16 C16     31.4672   8.1621  65.3971   C.2       1 RES1   0.0000
    17 C17     31.3122   8.1321  66.7892   C.2       1 RES1   0.0000
    18 C18     31.7692  10.3901  66.9642   C.2       1 RES1   0.0000
    19 C19     31.7882   9.4151  64.8621   C.2       1 RES1   0.0000
    20 C20     28.5463   9.9421  61.4470   C.3       1 RES1   0.0000
    21 C21     28.7563  11.4471  61.2250   C.3       1 RES1   0.0000
    22 C22     26.5444  10.7201  62.9430   C.3       1 RES1   0.0000
    23 C23     27.0053  12.1292  62.5490   C.3       1 RES1   0.0000
    24 O24     28.4913   4.3651  65.8621   O.2       1 RES1   0.0000
    25 O25     27.4833  12.0722  61.2230   O.3       1 RES1   0.0000
    26 O26     24.9964   8.8041  61.7080   O.3       1 RES1  -1.0000
    27 O27     24.0554   7.1801  62.9550   O.2       1 RES1   0.0000
    28 H1      31.9185   9.4963  63.7840   H         1 RES1   0.0000
    29 H2      27.8009  12.4585  63.2156   H         1 RES1   0.0000
    30 H3      26.1687  12.8235  62.6116   H         1 RES1   0.0000
    31 H4      26.4552  10.6733  64.0273   H         1 RES1   0.0000
    32 H5      25.5719  10.5324  62.4903   H         1 RES1   0.0000
    33 H6      29.2514  11.6141  60.2695   H         1 RES1   0.0000
    34 H7      29.3680  11.8571  62.0273   H         1 RES1   0.0000
    35 H8      28.2343   9.4922  60.5056   H         1 RES1   0.0000
    36 H9      29.4909   9.5025  61.7639   H         1 RES1   0.0000
    37 H10     31.3295   7.2157  63.4837   H         1 RES1   0.0000
    38 H11     32.0609   6.2100  64.7549   H         1 RES1   0.0000
    39 H12     32.1351  12.3191  67.2722   H         1 RES1   0.0000
    40 H13     31.7780  11.3578  68.7001   H         1 RES1   0.0000
    41 H14     31.0606   7.1817  67.2576   H         1 RES1   0.0000
    42 H15     25.5591   5.6543  63.8397   H         1 RES1   0.0000
    43 H16     26.8157   2.7297  65.0940   H         1 RES1   0.0000
    44 H17     26.0918   3.8199  63.9202   H         1 RES1   0.0000
    45 H18     29.9081   5.5446  65.4729   H         1 RES1   0.0000
    46 H19     29.5728   8.6296  63.5979   H         1 RES1   0.0000
@<TRIPOS>BOND
     1     1    10    1
     2     1    15    1
     3     2    14   am
     4     3    17    2
     5     3    18    1
     6     4    18    2
     7     4    19    1
     8     5    12    1
     9     5    20    1
    10     5    22    1
    11     6    18    1
    12     7    13    1
    13     7    26    1
    14     7    27    2
    15     8     9    2
    16     8    13    1
    17     9    10    1
    18     9    14    1
    19    10    11    2
    20    11    12    1
    21    12    13    2
    22    14    24    2
    23    15    16    1
    24    16    17    1
    25    16    19    2
    26    20    21    1
    27    21    25    1
    28    22    23    1
    29    23    25    1
    30    19    28    1
    31    23    29    1
    32    23    30    1
    33    22    31    1
    34    22    32    1
    35    21    33    1
    36    21    34    1
    37    20    35    1
    38    20    36    1
    39    15    37    1
    40    15    38    1
    41     6    39    1
    42     6    40    1
    43    17    41    1
    44     8    42    1
    45     2    43    1
    46     2    44    1
    47     1    45    1
    48    11    46    1
@<TRIPOS>SUBSTRUCTURE
     1 RES1        1 GROUP             0 ****  ****    0  
@<TRIPOS>MOLECULE
4BCO:A:T6Q1299
    59    62     1     0     0
SMALL
NO_CHARGES
****
Generated from the CSD

@<TRIPOS>ATOM
     1 C1      26.0952   9.2779  58.9658   C.3       1 RES1   0.0000
     2 N2      24.8982   8.7629  59.6208   N.pl3     1 RES1   0.0000
     3 C3      25.0412   7.8739  60.7117   C.2       1 RES1   0.0000
     4 N4      24.0572   7.1539  61.3077   N.2       1 RES1   0.0000
     5 C5      24.4242   6.3629  62.3327   C.2       1 RES1   0.0000
     6 C6      23.3663   5.5429  63.0526   C.3       1 RES1   0.0000
     7 C7      25.8042   6.3909  62.6646   C.2       1 RES1   0.0000
     8 C8      26.5831   5.6869  63.6246   C.2       1 RES1   0.0000
     9 N9      27.5681   6.3289  64.2985   N.2       1 RES1   0.0000
    10 C10     28.3641   5.6659  65.1895   C.2       1 RES1   0.0000
    11 N11     29.3991   6.3929  65.9225   N.pl3     1 RES1   0.0000
    12 C12     30.0810   7.5499  65.3555   C.2       1 RES1   0.0000
    13 C13     29.8560   7.9519  64.0296   C.2       1 RES1   0.0000
    14 C14     30.5210   9.0659  63.5146   C.2       1 RES1   0.0000
    15 C15     31.4350   9.7968  64.3335   C.2       1 RES1   0.0000
    16 C16     31.6510   9.3959  65.6525   C.2       1 RES1   0.0000
    17 N17     32.5940  10.1458  66.5054   N.pl3     1 RES1   0.0000
    18 C18     32.0630  11.4818  66.6284   C.3       1 RES1   0.0000
    19 C19     31.8840  11.9628  68.0213   C.3       1 RES1   0.0000
    20 C20     31.1030  11.0368  68.8913   C.3       1 RES1   0.0000
    21 N21     31.8940   9.9798  69.4243   N.am      1 RES1   0.0000
    22 C22     31.8830   9.8208  70.8712   C.2       1 RES1   0.0000
    23 C23     32.7010   8.7279  71.5202   C.3       1 RES1   0.0000
    24 O24     31.2120  10.5778  71.5692   O.2       1 RES1   0.0000
    25 C25     32.7150   9.0519  68.7023   C.3       1 RES1   0.0000
    26 C26     33.4519   9.7268  67.5784   C.3       1 RES1   0.0000
    27 C27     30.9860   8.2779  66.1634   C.2       1 RES1   0.0000
    28 N28     28.2101   4.3509  65.4135   N.2       1 RES1   0.0000
    29 C29     27.2511   3.6429  64.7405   C.2       1 RES1   0.0000
    30 C30     26.4342   4.3059  63.8246   C.2       1 RES1   0.0000
    31 C31     25.4202   3.5389  63.0936   C.1       1 RES1   0.0000
    32 N32     24.6312   2.9360  62.5326   N.1       1 RES1   0.0000
    33 S33     26.5102   7.4989  61.5517   S.3       1 RES1   0.0000
    34 H1      31.3652  12.9197  67.9883   H         1 RES1   0.0000
    35 H2      32.8691  12.0991  68.4650   H         1 RES1   0.0000
    36 H3      30.2959  10.6040  68.3021   H         1 RES1   0.0000
    37 H4      30.6831  11.6078  69.7181   H         1 RES1   0.0000
    38 H5      32.0830   8.2667  68.2900   H         1 RES1   0.0000
    39 H6      33.4391   8.6129  69.3870   H         1 RES1   0.0000
    40 H7      33.7536   8.8712  71.2804   H         1 RES1   0.0000
    41 H8      32.5663   8.7663  72.6001   H         1 RES1   0.0000
    42 H9      32.3725   7.7588  71.1476   H         1 RES1   0.0000
    43 H10     31.1657   7.9648  67.1908   H         1 RES1   0.0000
    44 H11     22.8884   4.8661  62.3458   H         1 RES1   0.0000
    45 H12     23.8341   4.9654  63.8486   H         1 RES1   0.0000
    46 H13     22.6184   6.2096  63.4793   H         1 RES1   0.0000
    47 H14     26.6763   8.4478  58.5667   H         1 RES1   0.0000
    48 H15     25.8067   9.9429  58.1531   H         1 RES1   0.0000
    49 H16     26.6965   9.8276  59.6885   H         1 RES1   0.0000
    50 H17     31.0920  11.5055  66.1360   H         1 RES1   0.0000
    51 H18     32.7440  12.1635  66.1210   H         1 RES1   0.0000
    52 H19     33.9606  10.6036  67.9763   H         1 RES1   0.0000
    53 H20     34.1877   9.0298  67.1802   H         1 RES1   0.0000
    54 H21     27.1275   2.5756  64.9179   H         1 RES1   0.0000
    55 H22     23.9760   9.0384  59.2986   H         1 RES1   0.0000
    56 H23     31.9601  10.6617  63.9309   H         1 RES1   0.0000
    57 H24     30.3427   9.3783  62.4867   H         1 RES1   0.0000
    58 H25     29.1621   7.3943  63.4023   H         1 RES1   0.0000
    59 H26     29.6508   6.0824  66.8555   H         1 RES1   0.0000
@<TRIPOS>BOND
     1     1     2    1
     2     2     3    1
     3     3     4    2
     4     3    33    1
     5     4     5    1
     6     5     6    1
     7     5     7    2
     8     7     8    1
     9     7    33    1
    10     8     9    2
    11     8    30    1
    12     9    10    1
    13    10    11    1
    14    10    28    2
    15    11    12    1
    16    12    13    2
    17    12    27    1
    18    13    14    1
    19    14    15    2
    20    15    16    1
    21    16    17    1
    22    16    27    2
    23    17    18    1
    24    17    26    1
    25    18    19    1
    26    19    20    1
    27    20    21    1
    28    21    22   am
    29    21    25    1
    30    22    23    1
    31    22    24    2
    32    25    26    1
    33    28    29    1
    34    29    30    2
    35    30    31    1
    36    31    32    3
    37    19    34    1
    38    19    35    1
    39    20    36    1
    40    20    37    1
    41    25    38    1
    42    25    39    1
    43    23    40    1
    44    23    41    1
    45    23    42    1
    46    27    43    1
    47     6    44    1
    48     6    45    1
    49     6    46    1
    50     1    47    1
    51     1    48    1
    52     1    49    1
    53    18    50    1
    54    18    51    1
    55    26    52    1
    56    26    53    1
    57    29    54    1
    58     2    55    1
    59    15    56    1
    60    14    57    1
    61    13    58    1
    62    11    59    1
@<TRIPOS>SUBSTRUCTURE
     1 RES1        1 GROUP             0 ****  ****    0  
@<TRIPOS>MOLECULE
3R9H:A:Z67606
    41    43     1     0     0
SMALL
NO_CHARGES
****
Generated from the CSD

@<TRIPOS>ATOM
     1 C1      26.6959   4.9049  64.0068   C.2       1 RES1   0.0000
     2 C2      27.1599   3.9040  64.8048   C.2       1 RES1   0.0000
     3 N3      28.3199   4.2399  65.4968   N.2       1 RES1   0.0000
     4 C4      28.7379   5.4639  65.2258   C.2       1 RES1   0.0000
     5 S5      27.7169   6.3319  64.1108   S.3       1 RES1   0.0000
     6 C6      25.5359   4.9419  63.0997   C.2       1 RES1   0.0000
     7 N7      26.5839   2.6440  64.9428   N.pl3     1 RES1   0.0000
     8 N8      29.8939   5.9759  65.7468   N.pl3     1 RES1   0.0000
     9 O9      24.9339   3.8960  62.8467   O.2       1 RES1   0.0000
    10 C10     32.1859   9.3899  65.1628   C.2       1 RES1   0.0000
    11 C11     32.3699   8.6109  66.3568   C.2       1 RES1   0.0000
    12 C12     31.5709   7.4669  66.5648   C.2       1 RES1   0.0000
    13 C13     30.5899   7.0999  65.5888   C.2       1 RES1   0.0000
    14 C14     30.4149   7.9089  64.3998   C.2       1 RES1   0.0000
    15 C15     31.2099   9.0519  64.1898   C.2       1 RES1   0.0000
    16 S16     33.2389  10.7589  64.8788   S.o2      1 RES1   0.0000
    17 O17     34.3049  10.2099  64.0378   O.2       1 RES1   0.0000
    18 N18     32.3519  11.9048  63.9557   N.pl3     1 RES1   0.0000
    19 O19     33.5799  11.3599  66.1828   O.2       1 RES1   0.0000
    20 N20     25.2499   6.1359  62.5567   N.am      1 RES1   0.0000
    21 C21     22.2819   7.2059  59.6396   C.2       1 RES1   0.0000
    22 C22     21.8629   6.5849  60.8607   C.2       1 RES1   0.0000
    23 C23     22.8359   6.2189  61.8527   C.2       1 RES1   0.0000
    24 C24     24.2469   6.4809  61.6077   C.2       1 RES1   0.0000
    25 C25     24.6479   7.1019  60.3797   C.2       1 RES1   0.0000
    26 C26     23.6719   7.4659  59.3996   C.2       1 RES1   0.0000
    27 F27     25.9699   7.3469  60.1426   F         1 RES1   0.0000
    28 F28     22.4129   5.6329  63.0047   F         1 RES1   0.0000
    29 H1      29.6628   7.6309  63.6629   H         1 RES1   0.0000
    30 H2      23.9843   7.9407  58.4707   H         1 RES1   0.0000
    31 H3      31.0784   9.6641  63.2988   H         1 RES1   0.0000
    32 H4      27.0030   1.9597  65.5644   H         1 RES1   0.0000
    33 H5      25.7449   2.4097  64.4218   H         1 RES1   0.0000
    34 H6      30.3260   5.3468  66.4159   H         1 RES1   0.0000
    35 H7      33.1181   8.9007  67.0930   H         1 RES1   0.0000
    36 H8      31.6998   6.8658  67.4637   H         1 RES1   0.0000
    37 H9      21.5416   7.4818  58.8901   H         1 RES1   0.0000
    38 H10     20.8061   6.3901  61.0373   H         1 RES1   0.0000
    39 H11     25.8343   6.9049  62.8685   H         1 RES1   0.0000
    40 H12     32.7857  12.7804  63.6812   H         1 RES1   0.0000
    41 H13     31.3941  11.7062  63.6849   H         1 RES1   0.0000
@<TRIPOS>BOND
     1     1     2    2
     2     1     5    1
     3     1     6    1
     4     2     3    1
     5     2     7    1
     6     3     4    2
     7     4     5    1
     8     4     8    1
     9     6     9    2
    10     6    20   am
    11     8    13    1
    12    10    11    2
    13    10    15    1
    14    10    16    1
    15    11    12    1
    16    12    13    2
    17    13    14    1
    18    14    15    2
    19    16    17    2
    20    16    18    1
    21    16    19    2
    22    20    24    1
    23    21    22    2
    24    21    26    1
    25    22    23    1
    26    23    24    2
    27    23    28    1
    28    24    25    1
    29    25    26    2
    30    25    27    1
    31    14    29    1
    32    26    30    1
    33    15    31    1
    34     7    32    1
    35     7    33    1
    36     8    34    1
    37    11    35    1
    38    12    36    1
    39    21    37    1
    40    22    38    1
    41    20    39    1
    42    18    40    1
    43    18    41    1
@<TRIPOS>SUBSTRUCTURE
     1 RES1        1 GROUP             0 ****  ****    0  
@<TRIPOS>MOLECULE
4BCN:A:T9N1299
    38    40     1     0     0
SMALL
NO_CHARGES
****
Generated from the CSD

@<TRIPOS>ATOM
     1 C1      25.9513   8.1540  58.9832   C.3       1 RES1   0.0000
     2 N2      24.7543   8.5280  59.6822   N.pl3     1 RES1   0.0000
     3 C3      24.7633   7.9700  61.0112   C.2       1 RES1   0.0000
     4 N4      23.9003   7.0530  61.4681   N.2       1 RES1   0.0000
     5 C5      24.2823   6.3120  62.5871   C.2       1 RES1   0.0000
     6 C6      23.3313   5.4510  63.3611   C.3       1 RES1   0.0000
     7 C7      25.7323   6.3270  62.7291   C.2       1 RES1   0.0000
     8 C8      26.6412   5.5210  63.6151   C.2       1 RES1   0.0000
     9 N9      27.6412   6.1480  64.3151   N.2       1 RES1   0.0000
    10 C10     28.5672   5.5890  65.1491   C.2       1 RES1   0.0000
    11 N11     29.6061   6.3240  65.8071   N.pl3     1 RES1   0.0000
    12 C12     30.2471   7.4660  65.2031   C.2       1 RES1   0.0000
    13 C13     29.8651   7.9580  63.9961   C.2       1 RES1   0.0000
    14 C14     30.5781   9.1670  63.4161   C.2       1 RES1   0.0000
    15 O15     30.2201   9.6830  62.1901   O.3       1 RES1   0.0000
    16 C16     31.5981   9.7520  64.1061   C.2       1 RES1   0.0000
    17 C17     32.0131   9.2170  65.4201   C.2       1 RES1   0.0000
    18 C18     31.3701   8.1240  65.9501   C.2       1 RES1   0.0000
    19 N19     28.4232   4.2800  65.2491   N.2       1 RES1   0.0000
    20 C20     27.4802   3.5560  64.6071   C.2       1 RES1   0.0000
    21 C21     26.5252   4.1250  63.7361   C.2       1 RES1   0.0000
    22 C22     25.5023   3.3340  63.0001   C.1       1 RES1   0.0000
    23 N23     24.7203   2.7460  62.4221   N.1       1 RES1   0.0000
    24 S24     26.1612   7.8860  62.0281   S.3       1 RES1   0.0000
    25 H1      32.8277   9.6885  65.9678   H         1 RES1   0.0000
    26 H2      27.4553   2.4795  64.7695   H         1 RES1   0.0000
    27 H3      31.6776   7.7328  66.9187   H         1 RES1   0.0000
    28 H4      32.1095  10.6174  63.6873   H         1 RES1   0.0000
    29 H5      29.2689   9.9671  62.2155   H         1 RES1   0.0000
    30 H6      29.0511   7.4876  63.4466   H         1 RES1   0.0000
    31 H7      29.9019   6.0302  66.7325   H         1 RES1   0.0000
    32 H8      22.9189   4.6855  62.7055   H         1 RES1   0.0000
    33 H9      23.8606   4.9760  64.1858   H         1 RES1   0.0000
    34 H10     22.5231   6.0657  63.7546   H         1 RES1   0.0000
    35 H11     26.0078   7.0686  58.9152   H         1 RES1   0.0000
    36 H12     25.9347   8.5802  57.9812   H         1 RES1   0.0000
    37 H13     26.8193   8.5296  59.5231   H         1 RES1   0.0000
    38 H14     24.0106   9.1014  59.2969   H         1 RES1   0.0000
@<TRIPOS>BOND
     1     1     2    1
     2     2     3    1
     3     3     4    2
     4     3    24    1
     5     4     5    1
     6     5     6    1
     7     5     7    2
     8     7     8    1
     9     7    24    1
    10     8     9    2
    11     8    21    1
    12     9    10    1
    13    10    11    1
    14    10    19    2
    15    11    12    1
    16    12    13    2
    17    12    18    1
    18    13    14    1
    19    14    15    1
    20    14    16    2
    21    16    17    1
    22    17    18    2
    23    19    20    1
    24    20    21    2
    25    21    22    1
    26    22    23    3
    27    17    25    1
    28    20    26    1
    29    18    27    1
    30    16    28    1
    31    15    29    1
    32    13    30    1
    33    11    31    1
    34     6    32    1
    35     6    33    1
    36     6    34    1
    37     1    35    1
    38     1    36    1
    39     1    37    1
    40     2    38    1
@<TRIPOS>SUBSTRUCTURE
     1 RES1        1 GROUP             0 ****  ****    0  
@<TRIPOS>MOLECULE
2VTJ:A:LZ41300
    27    28     1     0     0
SMALL
NO_CHARGES
****
Generated from the CSD

@<TRIPOS>ATOM
     1 N1      33.7084  11.0218  66.1803   N.pl3     1 RES1   0.0000
     2 S2      33.3464  10.6998  64.6533   S.o2      1 RES1   0.0000
     3 O3      33.1194  11.9518  63.9804   O.2       1 RES1   0.0000
     4 O4      34.3614   9.8068  64.1484   O.2       1 RES1   0.0000
     5 C5      31.8214   9.8078  64.6393   C.2       1 RES1   0.0000
     6 C6      30.6244  10.4918  64.4903   C.2       1 RES1   0.0000
     7 C7      29.4374   9.7918  64.4703   C.2       1 RES1   0.0000
     8 C8      29.4334   8.4028  64.6083   C.2       1 RES1   0.0000
     9 N9      28.2234   7.6928  64.5983   N.pl3     1 RES1   0.0000
    10 C10     27.9544   6.3279  64.7483   C.2       1 RES1   0.0000
    11 C11     28.6874   5.4939  65.5823   C.2       1 RES1   0.0000
    12 N12     28.4084   4.1949  65.7113   N.2       1 RES1   0.0000
    13 C13     27.3774   3.7319  65.0003   C.2       1 RES1   0.0000
    14 C14     26.6533   4.5759  64.1854   C.2       1 RES1   0.0000
    15 Cl15    25.3213   3.9489  63.2684   Cl        1 RES1   0.0000
    16 N16     26.9153   5.8739  64.0304   N.2       1 RES1   0.0000
    17 C17     30.6424   7.7298  64.7693   C.2       1 RES1   0.0000
    18 C18     31.8284   8.4308  64.7863   C.2       1 RES1   0.0000
    19 H1      28.4965  10.3258  64.3460   H         1 RES1   0.0000
    20 H2      30.6223  11.5761  64.3896   H         1 RES1   0.0000
    21 H3      29.5169   5.9133  66.1496   H         1 RES1   0.0000
    22 H4      32.7716   7.9019  64.9154   H         1 RES1   0.0000
    23 H5      27.4000   8.2695  64.4578   H         1 RES1   0.0000
    24 H6      33.9048  10.2637  66.8260   H         1 RES1   0.0000
    25 H7      33.7414  11.9839  66.5020   H         1 RES1   0.0000
    26 H8      30.6501   6.6467  64.8820   H         1 RES1   0.0000
    27 H9      27.1063   2.6791  65.0646   H         1 RES1   0.0000
@<TRIPOS>BOND
     1     1     2    1
     2     2     3    2
     3     2     4    2
     4     2     5    1
     5     5     6    2
     6     5    18    1
     7     6     7    1
     8     7     8    2
     9     8     9    1
    10     8    17    1
    11     9    10    1
    12    10    11    2
    13    10    16    1
    14    11    12    1
    15    12    13    2
    16    13    14    1
    17    14    15    1
    18    14    16    2
    19    17    18    2
    20     7    19    1
    21     6    20    1
    22    11    21    1
    23    18    22    1
    24     9    23    1
    25     1    24    1
    26     1    25    1
    27    17    26    1
    28    13    27    1
@<TRIPOS>SUBSTRUCTURE
     1 RES1        1 GROUP             0 ****  ****    0  
@<TRIPOS>MOLECULE
3R7E:A:X88919
    31    32     1     0     0
SMALL
USER_CHARGES
****
Generated from the CSD

@<TRIPOS>ATOM
     1 C1      28.4991   8.1760  63.7766   C.2       1 RES1   0.0000
     2 C2      27.2151   8.5860  63.3376   C.2       1 RES1   0.0000
     3 C3      26.0701   7.7320  63.4646   C.2       1 RES1   0.0000
     4 C4      26.2731   6.4330  64.0646   C.2       1 RES1   0.0000
     5 C5      27.5691   5.9650  64.5326   C.2       1 RES1   0.0000
     6 C6      28.7351   6.8680  64.3806   C.2       1 RES1   0.0000
     7 N7      29.9561   6.4810  64.7766   N.pl3     1 RES1   0.0000
     8 C8      27.6591   4.6710  65.0656   C.2       1 RES1   0.0000
     9 N9      26.8011   3.6610  64.7186   N.am      1 RES1   0.0000
    10 O10     28.6281   4.3580  65.9466   O.2       1 RES1   0.0000
    11 N11     24.8451   8.1250  63.0366   N.pl3     1 RES1   1.0000
    12 O12     23.7641   7.3260  63.1486   O.3       1 RES1  -1.0000
    13 O13     24.6671   9.2190  62.5306   O.2       1 RES1   0.0000
    14 C14     31.2181   7.2500  64.6816   C.3       1 RES1   0.0000
    15 C15     31.9822   9.9520  67.9926   C.2       1 RES1   0.0000
    16 N16     31.0851   8.9120  68.1356   N.2       1 RES1   0.0000
    17 C17     30.8051   8.0240  67.1186   C.2       1 RES1   0.0000
    18 C18     31.4651   8.1830  65.8646   C.2       1 RES1   0.0000
    19 N19     32.3682   9.2350  65.7306   N.2       1 RES1   0.0000
    20 C20     32.6422  10.1190  66.7576   C.2       1 RES1   0.0000
    21 H1      29.3382   8.8601  63.6593   H         1 RES1   0.0000
    22 H2      27.0954   9.5730  62.8933   H         1 RES1   0.0000
    23 H3      33.3550  10.9299  66.6154   H         1 RES1   0.0000
    24 H4      30.0921   7.2150  67.2705   H         1 RES1   0.0000
    25 H5      32.1769  10.6324  68.8203   H         1 RES1   0.0000
    26 H6      31.1867   7.8495  63.7730   H         1 RES1   0.0000
    27 H7      32.0457   6.5447  64.6227   H         1 RES1   0.0000
    28 H8      26.9072   2.7403  65.1324   H         1 RES1   0.0000
    29 H9      26.0592   3.8334  64.0477   H         1 RES1   0.0000
    30 H10     30.0231   5.5557  65.1883   H         1 RES1   0.0000
    31 H11     25.4142   5.7721  64.1717   H         1 RES1   0.0000
@<TRIPOS>BOND
     1     1     2    2
     2     1     6    1
     3     2     3    1
     4     3     4    2
     5     3    11    1
     6     4     5    1
     7     5     6    2
     8     5     8    1
     9     6     7    1
    10     7    14    1
    11     8     9   am
    12     8    10    2
    13    11    12    1
    14    11    13    2
    15    14    18    1
    16    15    16    2
    17    15    20    1
    18    16    17    1
    19    17    18    2
    20    18    19    1
    21    19    20    2
    22     1    21    1
    23     2    22    1
    24    20    23    1
    25    17    24    1
    26    15    25    1
    27    14    26    1
    28    14    27    1
    29     9    28    1
    30     9    29    1
    31     7    30    1
    32     4    31    1
@<TRIPOS>SUBSTRUCTURE
     1 RES1        1 GROUP             0 ****  ****    0  
@<TRIPOS>MOLECULE
3QX2:A:X63300
    42    43     1     0     0
SMALL
USER_CHARGES
****
Generated from the CSD

@<TRIPOS>ATOM
     1 N1      29.9759   6.2512  64.6772   N.pl3     1 RES1   0.0000
     2 N2      26.8129   3.5731  64.7172   N.am      1 RES1   0.0000
     3 N3      31.6209  10.5993  65.6502   N.2       1 RES1   0.0000
     4 N4      31.1419   9.2313  67.5822   N.2       1 RES1   0.0000
     5 N5      27.2979   9.4873  62.4361   N.pl3     1 RES1   0.0000
     6 N6      31.4119  11.4633  67.7342   N.pl3     1 RES1   0.0000
     7 N7      25.0749   7.8872  62.7821   N.pl3     1 RES1   1.0000
     8 C8      26.3589   6.2502  63.9002   C.2       1 RES1   0.0000
     9 C9      27.6289   5.8012  64.4052   C.2       1 RES1   0.0000
    10 C10     28.7949   6.6422  64.2232   C.2       1 RES1   0.0000
    11 C11     28.6389   7.8992  63.5402   C.2       1 RES1   0.0000
    12 C12     27.3859   8.3382  63.0451   C.2       1 RES1   0.0000
    13 C13     26.2259   7.5142  63.2211   C.2       1 RES1   0.0000
    14 C14     27.6939   4.5621  65.0472   C.2       1 RES1   0.0000
    15 C15     31.2749   6.9802  64.4842   C.3       1 RES1   0.0000
    16 C16     31.3309   8.1962  65.3852   C.2       1 RES1   0.0000
    17 C17     31.5829   9.4723  64.8832   C.2       1 RES1   0.0000
    18 C18     31.3919  10.4223  66.9862   C.2       1 RES1   0.0000
    19 C19     31.1159   8.1362  66.7672   C.2       1 RES1   0.0000
    20 C20     28.3249   9.9403  61.4631   C.3       1 RES1   0.0000
    21 C21     28.9229  11.2593  61.9341   C.3       1 RES1   0.0000
    22 O22     28.5299   4.3251  65.9032   O.2       1 RES1   0.0000
    23 O23     27.8989  12.2143  62.0511   O.3       1 RES1   0.0000
    24 O24     24.9569   8.9023  61.9521   O.3       1 RES1  -1.0000
    25 O25     23.9799   7.2592  63.1551   O.2       1 RES1   0.0000
    26 H1      26.5050  10.0898  62.6323   H         1 RES1   0.0000
    27 H2      29.5125   8.5339  63.3992   H         1 RES1   0.0000
    28 H3      27.8636  10.0790  60.4864   H         1 RES1   0.0000
    29 H4      29.1114   9.1906  61.3899   H         1 RES1   0.0000
    30 H5      27.2260  11.8991  62.7098   H         1 RES1   0.0000
    31 H6      29.6612  11.6034  61.2113   H         1 RES1   0.0000
    32 H7      29.4012  11.1175  62.9021   H         1 RES1   0.0000
    33 H8      25.4797   5.6217  64.0339   H         1 RES1   0.0000
    34 H9      26.8615   2.6734  65.1846   H         1 RES1   0.0000
    35 H10     26.1092   3.7374  64.0044   H         1 RES1   0.0000
    36 H11     30.0059   5.3827  65.2016   H         1 RES1   0.0000
    37 H12     31.2466  11.3747  68.7317   H         1 RES1   0.0000
    38 H13     31.5931  12.3761  67.3289   H         1 RES1   0.0000
    39 H14     31.7602   9.5753  63.8137   H         1 RES1   0.0000
    40 H15     31.3584   7.2977  63.4459   H         1 RES1   0.0000
    41 H16     32.1010   6.3138  64.7276   H         1 RES1   0.0000
    42 H17     30.9173   7.1642  67.2162   H         1 RES1   0.0000
@<TRIPOS>BOND
     1     1    10    1
     2     1    15    1
     3     2    14   am
     4     3    17    2
     5     3    18    1
     6     4    18    2
     7     4    19    1
     8     5    12    1
     9     5    20    1
    10     6    18    1
    11     7    13    1
    12     7    24    1
    13     7    25    2
    14     8     9    2
    15     8    13    1
    16     9    10    1
    17     9    14    1
    18    10    11    2
    19    11    12    1
    20    12    13    2
    21    14    22    2
    22    15    16    1
    23    16    17    1
    24    16    19    2
    25    20    21    1
    26    21    23    1
    27     5    26    1
    28    11    27    1
    29    20    28    1
    30    20    29    1
    31    23    30    1
    32    21    31    1
    33    21    32    1
    34     8    33    1
    35     2    34    1
    36     2    35    1
    37     1    36    1
    38     6    37    1
    39     6    38    1
    40    17    39    1
    41    15    40    1
    42    15    41    1
    43    19    42    1
@<TRIPOS>SUBSTRUCTURE
     1 RES1        1 GROUP             0 ****  ****    0  
@<TRIPOS>MOLECULE
4CFW:A:SQ91299
    53    56     1     0     0
SMALL
NO_CHARGES
****
Generated from the CSD

@<TRIPOS>ATOM
     1 N1      26.3462   4.6192  63.8753   N.2       1 RES1   0.0000
     2 C2      27.1322   3.8351  64.5703   C.2       1 RES1   0.0000
     3 N3      26.7642   2.5971  64.6684   N.pl3     1 RES1   0.0000
     4 N4      28.2402   4.3251  65.1534   N.2       1 RES1   0.0000
     5 C5      28.5432   5.6122  65.0254   C.2       1 RES1   0.0000
     6 C6      27.7762   6.4502  64.3083   C.2       1 RES1   0.0000
     7 C7      26.6802   5.9152  63.7353   C.2       1 RES1   0.0000
     8 O8      25.8272   6.7002  63.0793   O.3       1 RES1   0.0000
     9 N9      28.3282   7.6733  64.3373   N.pl3     1 RES1   0.0000
    10 C10     29.4402   7.5233  65.0664   C.2       1 RES1   0.0000
    11 N11     29.5562   6.2672  65.4824   N.2       1 RES1   0.0000
    12 C12     26.2032   7.4233  61.9563   C.3       1 RES1   0.0000
    13 C13     24.9712   7.3763  61.0193   C.3       1 RES1   0.0000
    14 C14     30.3692   8.4433  65.4284   C.2       1 RES1   0.0000
    15 C15     31.4432   9.5353  67.3324   C.2       1 RES1   0.0000
    16 C16     24.3292   8.8123  60.7413   C.3       1 RES1   0.0000
    17 C17     25.2202   9.7643  59.9273   C.3       1 RES1   0.0000
    18 C18     25.9122   9.0493  58.7162   C.3       1 RES1   0.0000
    19 C19     26.5172   7.7123  59.1192   C.3       1 RES1   0.0000
    20 C20     25.3902   6.8212  59.7272   C.3       1 RES1   0.0000
    21 C21     30.5092   8.6613  66.8034   C.2       1 RES1   0.0000
    22 C22     32.2662  10.2513  66.4794   C.2       1 RES1   0.0000
    23 C23     32.1742  10.0563  65.1114   C.2       1 RES1   0.0000
    24 C24     31.2402   9.1463  64.5603   C.2       1 RES1   0.0000
    25 C25     31.1912   8.9633  63.1783   C.3       1 RES1   0.0000
    26 S26     33.3502  11.0494  64.0723   S.o2      1 RES1   0.0000
    27 O27     34.2932  11.9184  64.9434   O.2       1 RES1   0.0000
    28 N28     32.7562  11.8344  63.4183   N.pl3     1 RES1   0.0000
    29 O29     34.2042  10.2293  63.0933   O.2       1 RES1   0.0000
    30 H1      24.5389   6.7992  59.0484   H         1 RES1   0.0000
    31 H2      25.7657   5.8092  59.8715   H         1 RES1   0.0000
    32 H3      32.9830  10.9650  66.8828   H         1 RES1   0.0000
    33 H4      30.2020   9.2330  62.8113   H         1 RES1   0.0000
    34 H5      31.9398   9.5945  62.7018   H         1 RES1   0.0000
    35 H6      31.3935   7.9195  62.9430   H         1 RES1   0.0000
    36 H7      27.2993   7.8716  59.8601   H         1 RES1   0.0000
    37 H8      26.9408   7.2222  58.2438   H         1 RES1   0.0000
    38 H9      26.7027   9.6924  58.3321   H         1 RES1   0.0000
    39 H10     25.1710   8.8800  57.9365   H         1 RES1   0.0000
    40 H11     27.3310   1.9393  65.1940   H         1 RES1   0.0000
    41 H12     25.9090   2.2848  64.2197   H         1 RES1   0.0000
    42 H13     33.2577  12.4569  62.7929   H         1 RES1   0.0000
    43 H14     31.7445  11.8861  63.4821   H         1 RES1   0.0000
    44 H15     29.8557   8.1205  67.4863   H         1 RES1   0.0000
    45 H16     25.9914  10.1668  60.5824   H         1 RES1   0.0000
    46 H17     24.6054  10.5788  59.5472   H         1 RES1   0.0000
    47 H18     24.1183   9.2817  61.7010   H         1 RES1   0.0000
    48 H19     23.3981   8.6682  60.1952   H         1 RES1   0.0000
    49 H20     31.5301   9.6589  68.4109   H         1 RES1   0.0000
    50 H21     24.2149   6.7268  61.4576   H         1 RES1   0.0000
    51 H22     27.0666   6.9644  61.4768   H         1 RES1   0.0000
    52 H23     26.4410   8.4515  62.2249   H         1 RES1   0.0000
    53 H24     27.9800   8.5222  63.9033   H         1 RES1   0.0000
@<TRIPOS>BOND
     1     1     2    2
     2     1     7    1
     3     2     3    1
     4     2     4    1
     5     4     5    2
     6     5     6    1
     7     5    11    1
     8     6     7    2
     9     6     9    1
    10     7     8    1
    11     8    12    1
    12     9    10    1
    13    10    11    2
    14    10    14    1
    15    12    13    1
    16    13    16    1
    17    13    20    1
    18    14    21    1
    19    14    24    2
    20    15    21    2
    21    15    22    1
    22    16    17    1
    23    17    18    1
    24    18    19    1
    25    19    20    1
    26    22    23    2
    27    23    24    1
    28    23    26    1
    29    24    25    1
    30    26    27    2
    31    26    28    1
    32    26    29    2
    33    20    30    1
    34    20    31    1
    35    22    32    1
    36    25    33    1
    37    25    34    1
    38    25    35    1
    39    19    36    1
    40    19    37    1
    41    18    38    1
    42    18    39    1
    43     3    40    1
    44     3    41    1
    45    28    42    1
    46    28    43    1
    47    21    44    1
    48    17    45    1
    49    17    46    1
    50    16    47    1
    51    16    48    1
    52    15    49    1
    53    13    50    1
    54    12    51    1
    55    12    52    1
    56     9    53    1
@<TRIPOS>SUBSTRUCTURE
     1 RES1        1 GROUP             0 ****  ****    0  
@<TRIPOS>MOLECULE
4CFV:A:75X1299
    49    52     1     0     0
SMALL
NO_CHARGES
****
Generated from the CSD

@<TRIPOS>ATOM
     1 N1      26.2858   4.9533  63.6610   N.2       1 RES1   0.0000
     2 C2      26.9438   4.0783  64.4661   C.2       1 RES1   0.0000
     3 N3      26.4388   2.8732  64.5191   N.pl3     1 RES1   0.0000
     4 N4      28.0398   4.4573  65.1781   N.2       1 RES1   0.0000
     5 C5      28.4678   5.7604  65.0051   C.2       1 RES1   0.0000
     6 C6      27.8448   6.6564  64.2011   C.2       1 RES1   0.0000
     7 C7      26.7428   6.2364  63.5610   C.2       1 RES1   0.0000
     8 O8      26.1118   7.1834  62.8170   O.3       1 RES1   0.0000
     9 N9      28.5158   7.8685  64.2301   N.pl3     1 RES1   0.0000
    10 C10     29.5748   7.6905  65.0761   C.2       1 RES1   0.0000
    11 N11     29.5288   6.4264  65.5081   N.pl3     1 RES1   0.0000
    12 C12     25.1268   6.7154  61.8020   C.3       1 RES1   0.0000
    13 C13     25.4598   7.7515  60.7810   C.3       1 RES1   0.0000
    14 C14     30.5208   8.5695  65.5291   C.2       1 RES1   0.0000
    15 C15     30.8068   8.5735  66.9472   C.2       1 RES1   0.0000
    16 C16     31.7127   9.4936  67.4982   C.2       1 RES1   0.0000
    17 C17     32.4097  10.3996  66.6551   C.2       1 RES1   0.0000
    18 C18     32.1037  10.4056  65.2881   C.2       1 RES1   0.0000
    19 C19     31.1668   9.5106  64.7061   C.2       1 RES1   0.0000
    20 C20     30.9058   9.5296  63.3150   C.2       1 RES1   0.0000
    21 O21     32.7407  11.2797  64.4241   O.3       1 RES1   0.0000
    22 C22     26.3078   7.2034  59.5829   C.3       1 RES1   0.0000
    23 C23     26.8388   8.3965  58.8519   C.3       1 RES1   0.0000
    24 C24     25.6918   9.3516  58.4749   C.3       1 RES1   0.0000
    25 C25     24.8218   9.7976  59.6449   C.3       1 RES1   0.0000
    26 C26     24.2278   8.4895  60.3579   C.3       1 RES1   0.0000
    27 H1      30.2101   6.0163  66.1389   H         1 RES1   0.0000
    28 H2      28.2711   8.7151  63.7264   H         1 RES1   0.0000
    29 H3      24.0974   6.7828  62.1510   H         1 RES1   0.0000
    30 H4      25.3271   5.7025  61.4557   H         1 RES1   0.0000
    31 H5      31.8813   9.5127  68.5739   H         1 RES1   0.0000
    32 H6      26.8762   2.1647  65.0996   H         1 RES1   0.0000
    33 H7      25.6094   2.6463  63.9797   H         1 RES1   0.0000
    34 H8      33.1632  11.0728  67.0613   H         1 RES1   0.0000
    35 H9      30.3123   7.8525  67.5965   H         1 RES1   0.0000
    36 H10     26.0897   8.4817  61.2869   H         1 RES1   0.0000
    37 H11     31.4052  10.2575  62.6772   H         1 RES1   0.0000
    38 H12     30.2056   8.8164  62.8826   H         1 RES1   0.0000
    39 H13     23.6157   8.7559  61.2183   H         1 RES1   0.0000
    40 H14     23.6364   7.8976  59.6609   H         1 RES1   0.0000
    41 H15     24.0064  10.4210  59.2809   H         1 RES1   0.0000
    42 H16     25.4222  10.3638  60.3554   H         1 RES1   0.0000
    43 H17     25.0538   8.8462  57.7514   H         1 RES1   0.0000
    44 H18     26.1263  10.2394  58.0179   H         1 RES1   0.0000
    45 H19     27.3429   8.0661  57.9449   H         1 RES1   0.0000
    46 H20     27.5476   8.9219  59.4903   H         1 RES1   0.0000
    47 H21     25.6816   6.6061  58.9219   H         1 RES1   0.0000
    48 H22     27.1303   6.5932  59.9531   H         1 RES1   0.0000
    49 H23     33.7189  11.1100  64.4432   H         1 RES1   0.0000
@<TRIPOS>BOND
     1     1     2    2
     2     1     7    1
     3     2     3    1
     4     2     4    1
     5     4     5    2
     6     5     6    1
     7     5    11    1
     8     6     7    2
     9     6     9    1
    10     7     8    1
    11     8    12    1
    12     9    10    1
    13    10    11    1
    14    10    14    2
    15    12    13    1
    16    13    22    1
    17    13    26    1
    18    14    15    1
    19    14    19    1
    20    15    16    2
    21    16    17    1
    22    17    18    2
    23    18    19    1
    24    18    21    1
    25    19    20    2
    26    22    23    1
    27    23    24    1
    28    24    25    1
    29    25    26    1
    30    11    27    1
    31     9    28    1
    32    12    29    1
    33    12    30    1
    34    16    31    1
    35     3    32    1
    36     3    33    1
    37    17    34    1
    38    15    35    1
    39    13    36    1
    40    20    37    1
    41    20    38    1
    42    26    39    1
    43    26    40    1
    44    25    41    1
    45    25    42    1
    46    24    43    1
    47    24    44    1
    48    23    45    1
    49    23    46    1
    50    22    47    1
    51    22    48    1
    52    21    49    1
@<TRIPOS>SUBSTRUCTURE
     1 RES1        1 GROUP             0 ****  ****    0  
@<TRIPOS>MOLECULE
2B53:A:D23299
    45    47     1     0     0
SMALL
NO_CHARGES
****
Generated from the CSD

@<TRIPOS>ATOM
     1 C1      31.6869  10.1773  63.6100   C.2       1 RES1   0.0000
     2 C2      32.8059  11.0653  63.8900   C.2       1 RES1   0.0000
     3 C3      33.3619  11.2983  65.2210   C.2       1 RES1   0.0000
     4 C4      32.7199  10.6413  66.3420   C.2       1 RES1   0.0000
     5 C5      31.5839   9.7753  66.0550   C.2       1 RES1   0.0000
     6 C6      31.0369   9.4753  64.7070   C.2       1 RES1   0.0000
     7 N7      33.3329  11.7434  62.8020   N.pl3     1 RES1   0.0000
     8 C8      29.9128   8.4843  64.4650   C.2       1 RES1   0.0000
     9 C9      29.8478   7.2782  65.3270   C.2       1 RES1   0.0000
    10 C10     28.7598   6.3332  65.2420   C.2       1 RES1   0.0000
    11 C11     27.6858   6.5422  64.2670   C.2       1 RES1   0.0000
    12 C12     27.6778   7.7352  63.3280   C.2       1 RES1   0.0000
    13 C13     28.8028   8.6733  63.4650   C.2       1 RES1   0.0000
    14 N14     26.6357   5.6462  64.1660   N.2       1 RES1   0.0000
    15 C15     25.6137   5.7852  63.2790   C.2       1 RES1   0.0000
    16 N16     25.5267   6.8402  62.4090   N.2       1 RES1   0.0000
    17 C17     26.5217   7.7932  62.4140   C.2       1 RES1   0.0000
    18 N18     26.2377   8.7423  61.3730   N.pl3     1 RES1   0.0000
    19 C19     25.3597   8.9503  60.1910   C.3       1 RES1   0.0000
    20 C20     25.5277   7.7262  59.2330   C.3       1 RES1   0.0000
    21 C21     23.8837   8.9853  60.6420   C.3       1 RES1   0.0000
    22 C22     25.7487  10.2943  59.5300   C.3       1 RES1   0.0000
    23 C23     24.5987   4.6921  63.2210   C.3       1 RES1   0.0000
    24 F24     24.3317   4.4571  61.9610   F         1 RES1   0.0000
    25 F25     25.0667   3.6081  63.8270   F         1 RES1   0.0000
    26 F26     23.5637   5.1562  63.8300   F         1 RES1   0.0000
    27 H1      26.7918  10.2576  59.2194   H         1 RES1   0.0000
    28 H2      25.1168  10.4673  58.6601   H         1 RES1   0.0000
    29 H3      25.6112  11.1038  60.2453   H         1 RES1   0.0000
    30 H4      34.1146  12.3782  62.9297   H         1 RES1   0.0000
    31 H5      32.9371  11.6052  61.8776   H         1 RES1   0.0000
    32 H6      34.2278  11.9427  65.3655   H         1 RES1   0.0000
    33 H7      26.8455   9.5478  61.4820   H         1 RES1   0.0000
    34 H8      28.7372   5.4666  65.9012   H         1 RES1   0.0000
    35 H9      28.8343   9.5449  62.8129   H         1 RES1   0.0000
    36 H10     31.0915   9.3057  66.9053   H         1 RES1   0.0000
    37 H11     33.0735  10.7894  67.3613   H         1 RES1   0.0000
    38 H12     23.7392   9.8016  61.3482   H         1 RES1   0.0000
    39 H13     23.2427   9.1377  59.7749   H         1 RES1   0.0000
    40 H14     23.6280   8.0413  61.1210   H         1 RES1   0.0000
    41 H15     25.2411   6.8146  59.7552   H         1 RES1   0.0000
    42 H16     24.8917   7.8592  58.3591   H         1 RES1   0.0000
    43 H17     26.5673   7.6522  58.9174   H         1 RES1   0.0000
    44 H18     30.6459   7.1004  66.0463   H         1 RES1   0.0000
    45 H19     31.3387  10.0392  62.5874   H         1 RES1   0.0000
@<TRIPOS>BOND
     1     1     2    2
     2     1     6    1
     3     2     3    1
     4     2     7    1
     5     3     4    2
     6     4     5    1
     7     5     6    2
     8     6     8    1
     9     8     9    2
    10     8    13    1
    11     9    10    1
    12    10    11    2
    13    11    12    1
    14    11    14    1
    15    12    13    2
    16    12    17    1
    17    14    15    2
    18    15    16    1
    19    15    23    1
    20    16    17    2
    21    17    18    1
    22    18    19    1
    23    19    20    1
    24    19    21    1
    25    19    22    1
    26    23    24    1
    27    23    25    1
    28    23    26    1
    29    22    27    1
    30    22    28    1
    31    22    29    1
    32     7    30    1
    33     7    31    1
    34     3    32    1
    35    18    33    1
    36    10    34    1
    37    13    35    1
    38     5    36    1
    39     4    37    1
    40    21    38    1
    41    21    39    1
    42    21    40    1
    43    20    41    1
    44    20    42    1
    45    20    43    1
    46     9    44    1
    47     1    45    1
@<TRIPOS>SUBSTRUCTURE
     1 RES1        1 GROUP             0 ****  ****    0  
@<TRIPOS>MOLECULE
2B55:A:D31299
    62    66     1     0     0
SMALL
NO_CHARGES
****
Generated from the CSD

@<TRIPOS>ATOM
     1 N1      29.7785  10.8077  61.4463   N.3       1 RES1   0.0000
     2 C2      28.4545  11.1327  62.0183   C.3       1 RES1   0.0000
     3 C3      27.5125  11.7746  60.9913   C.3       1 RES1   0.0000
     4 C4      26.1735  12.1326  61.6443   C.3       1 RES1   0.0000
     5 C5      25.3385  10.9137  62.0343   C.3       1 RES1   0.0000
     6 N6      25.1785   9.9877  60.8923   N.3       1 RES1   0.0000
     7 C7      26.4305   9.5797  60.2243   C.3       1 RES1   0.0000
     8 C8      27.2585  10.8017  59.8343   C.3       1 RES1   0.0000
     9 C9      23.9174   9.2737  60.6363   C.3       1 RES1   0.0000
    10 C10     23.9634   7.8128  61.0533   C.2       1 RES1   0.0000
    11 N11     24.9125   7.4288  61.9083   N.am      1 RES1   0.0000
    12 C12     25.0925   6.1508  62.4953   C.2       1 RES1   0.0000
    13 C13     24.2674   4.9559  62.2153   C.2       1 RES1   0.0000
    14 C14     24.6244   3.6769  62.8493   C.2       1 RES1   0.0000
    15 C15     25.7855   3.6049  63.7584   C.2       1 RES1   0.0000
    16 C16     26.5945   4.7999  64.0284   C.2       1 RES1   0.0000
    17 C17     26.2545   6.0818  63.4013   C.2       1 RES1   0.0000
    18 C18     27.8155   5.0308  64.7704   C.2       1 RES1   0.0000
    19 C19     28.2125   6.4048  64.5754   C.2       1 RES1   0.0000
    20 C20     27.2435   7.0888  63.7444   C.2       1 RES1   0.0000
    21 N21     29.8005   5.3678  65.8564   N.2       1 RES1   0.0000
    22 C22     29.4755   6.6048  65.2574   C.2       1 RES1   0.0000
    23 C23     30.3185   7.8618  65.3814   C.3       1 RES1   0.0000
    24 C24     31.4376   7.8308  66.4264   C.3       1 RES1   0.0000
    25 C25     32.0976   9.1927  66.6344   C.3       1 RES1   0.0000
    26 C26     32.5756   9.7717  65.3064   C.3       1 RES1   0.0000
    27 C27     31.4206   9.8937  64.2984   C.3       1 RES1   0.0000
    28 C28     30.7506   8.5327  64.0754   C.3       1 RES1   0.0000
    29 O29     23.1314   7.0018  60.6483   O.2       1 RES1   0.0000
    30 O30     27.2375   8.2698  63.4143   O.2       1 RES1   0.0000
    31 N31     28.7505   4.3159  65.5504   N.pl3     1 RES1   0.0000
    32 H1      27.9734  12.6809  60.6013   H         1 RES1   0.0000
    33 H2      32.1979   7.1229  66.0998   H         1 RES1   0.0000
    34 H3      31.0175   7.5002  67.3751   H         1 RES1   0.0000
    35 H4      33.3413   9.1186  64.8904   H         1 RES1   0.0000
    36 H5      32.9979  10.7599  65.4824   H         1 RES1   0.0000
    37 H6      29.6172   8.5815  65.8011   H         1 RES1   0.0000
    38 H7      31.8109  10.2598  63.3500   H         1 RES1   0.0000
    39 H8      30.6831  10.5966  64.6830   H         1 RES1   0.0000
    40 H9      29.8703   8.6767  63.4507   H         1 RES1   0.0000
    41 H10     31.4551   7.8779  63.5646   H         1 RES1   0.0000
    42 H11     32.9507   9.0778  67.3015   H         1 RES1   0.0000
    43 H12     31.3760   9.8745  67.0820   H         1 RES1   0.0000
    44 H13     28.2208  10.4579  59.4578   H         1 RES1   0.0000
    45 H14     26.7304  11.3365  59.0462   H         1 RES1   0.0000
    46 H15     28.7263   3.3420  65.8352   H         1 RES1   0.0000
    47 H16     26.0436   2.6588  64.2320   H         1 RES1   0.0000
    48 H17     24.0331   2.7848  62.6483   H         1 RES1   0.0000
    49 H18     23.4081   5.0216  61.5496   H         1 RES1   0.0000
    50 H19     25.5888   8.1386  62.1709   H         1 RES1   0.0000
    51 H20     23.7016   9.3230  59.5700   H         1 RES1   0.0000
    52 H21     23.1209   9.7674  61.1911   H         1 RES1   0.0000
    53 H22     26.1882   9.0114  59.3275   H         1 RES1   0.0000
    54 H23     27.0110   8.9567  60.9031   H         1 RES1   0.0000
    55 H24     24.3549  11.2470  62.3619   H         1 RES1   0.0000
    56 H25     25.8345  10.3895  62.8499   H         1 RES1   0.0000
    57 H26     25.5979  12.7341  60.9423   H         1 RES1   0.0000
    58 H27     26.3732  12.7150  62.5426   H         1 RES1   0.0000
    59 H28     28.5926  11.8259  62.8467   H         1 RES1   0.0000
    60 H29     27.9977  10.2148  62.3853   H         1 RES1   0.0000
    61 H30     30.2183  11.6572  61.1070   H         1 RES1   0.0000
    62 H31     30.3623  10.3871  62.1622   H         1 RES1   0.0000
@<TRIPOS>BOND
     1     1     2    1
     2     2     3    1
     3     3     4    1
     4     3     8    1
     5     4     5    1
     6     5     6    1
     7     6     7    1
     8     6     9    1
     9     7     8    1
    10     9    10    1
    11    10    11   am
    12    10    29    2
    13    11    12    1
    14    12    13    2
    15    12    17    1
    16    13    14    1
    17    14    15    2
    18    15    16    1
    19    16    17    2
    20    16    18    1
    21    17    20    1
    22    18    19    2
    23    18    31    1
    24    19    20    1
    25    19    22    1
    26    20    30    2
    27    21    22    2
    28    21    31    1
    29    22    23    1
    30    23    24    1
    31    23    28    1
    32    24    25    1
    33    25    26    1
    34    26    27    1
    35    27    28    1
    36     3    32    1
    37    24    33    1
    38    24    34    1
    39    26    35    1
    40    26    36    1
    41    23    37    1
    42    27    38    1
    43    27    39    1
    44    28    40    1
    45    28    41    1
    46    25    42    1
    47    25    43    1
    48     8    44    1
    49     8    45    1
    50    31    46    1
    51    15    47    1
    52    14    48    1
    53    13    49    1
    54    11    50    1
    55     9    51    1
    56     9    52    1
    57     7    53    1
    58     7    54    1
    59     5    55    1
    60     5    56    1
    61     4    57    1
    62     4    58    1
    63     2    59    1
    64     2    60    1
    65     1    61    1
    66     1    62    1
@<TRIPOS>SUBSTRUCTURE
     1 RES1        1 GROUP             0 ****  ****    0  
@<TRIPOS>MOLECULE
3R8M:A:Z19486
    21    22     1     0     0
SMALL
NO_CHARGES
****
Generated from the CSD

@<TRIPOS>ATOM
     1 N1      28.5783   4.2049  65.5839   N.2       1 RES1   0.0000
     2 N2      27.6443   3.3509  65.0899   N.pl3     1 RES1   0.0000
     3 C3      26.7653   3.9389  64.1979   C.2       1 RES1   0.0000
     4 C4      27.2093   5.3149  64.1279   C.2       1 RES1   0.0000
     5 C5      28.3443   5.3769  65.0299   C.2       1 RES1   0.0000
     6 C6      29.1233   6.6379  65.2679   C.2       1 RES1   0.0000
     7 N7      30.1353   6.5259  66.1309   N.am      1 RES1   0.0000
     8 N8      30.9283   7.6209  66.4499   N.3       1 RES1   0.0000
     9 O9      28.8333   7.6989  64.7039   O.2       1 RES1   0.0000
    10 C10     25.6503   3.4549  63.4419   C.2       1 RES1   0.0000
    11 C11     24.9453   4.3579  62.5839   C.2       1 RES1   0.0000
    12 C12     25.3573   5.7259  62.4929   C.2       1 RES1   0.0000
    13 C13     26.4783   6.2009  63.2569   C.2       1 RES1   0.0000
    14 H1      27.5958   2.3713  65.3513   H         1 RES1   0.0000
    15 H2      25.3424   2.4131  63.5186   H         1 RES1   0.0000
    16 H3      30.3509   8.3497  66.8569   H         1 RES1   0.0000
    17 H4      31.6396   7.3405  67.1174   H         1 RES1   0.0000
    18 H5      24.8179   6.4111  61.8406   H         1 RES1   0.0000
    19 H6      26.7795   7.2443  63.1767   H         1 RES1   0.0000
    20 H7      24.0962   4.0046  62.0008   H         1 RES1   0.0000
    21 H8      30.3284   5.6269  66.5607   H         1 RES1   0.0000
@<TRIPOS>BOND
     1     1     2    1
     2     1     5    2
     3     2     3    1
     4     3     4    2
     5     3    10    1
     6     4     5    1
     7     4    13    1
     8     5     6    1
     9     6     7   am
    10     6     9    2
    11     7     8    1
    12    10    11    2
    13    11    12    1
    14    12    13    2
    15     2    14    1
    16    10    15    1
    17     8    16    1
    18     8    17    1
    19    12    18    1
    20    13    19    1
    21    11    20    1
    22     7    21    1
@<TRIPOS>SUBSTRUCTURE
     1 RES1        1 GROUP             0 ****  ****    0  
@<TRIPOS>MOLECULE
3R8V:A:Z62473
    35    36     1     0     0
SMALL
USER_CHARGES
****
Generated from the CSD

@<TRIPOS>ATOM
     1 N1      28.6834   4.5300  65.5246   N.2       1 RES1   0.0000
     2 C2      27.7273   4.3950  64.5906   C.2       1 RES1   0.0000
     3 N3      27.1213   3.1920  64.3936   N.pl3     1 RES1   0.0000
     4 C4      27.4533   5.5900  63.8746   C.2       1 RES1   0.0000
     5 C5      26.5433   5.7570  62.8496   C.2       1 RES1   0.0000
     6 C6      26.2923   7.0460  62.1286   C.2       1 RES1   0.0000
     7 C7      26.1873   8.2960  62.8326   C.2       1 RES1   0.0000
     8 C8      25.9273   9.5310  62.1456   C.2       1 RES1   0.0000
     9 C9      25.7673   9.4710  60.7086   C.2       1 RES1   0.0000
    10 C10     25.8693   8.2420  60.0076   C.2       1 RES1   0.0000
    11 C11     26.1313   7.0330  60.7076   C.2       1 RES1   0.0000
    12 O12     25.8143   4.7140  62.4116   O.3       1 RES1   0.0000
    13 S13     28.4374   6.8810  64.4426   S.3       1 RES1   0.0000
    14 C14     29.1604   5.7990  65.5646   C.2       1 RES1   0.0000
    15 N15     30.1594   6.1640  66.4426   N.2       1 RES1   0.0000
    16 C16     30.6004   7.5590  66.5596   C.3       1 RES1   0.0000
    17 C17     31.4924   7.9660  65.4086   C.3       1 RES1   0.0000
    18 C18     31.0854   9.0350  64.4616   C.3       1 RES1   0.0000
    19 N19     25.8373  10.6920  62.8206   N.pl3     1 RES1   1.0000
    20 O20     25.9973  10.7470  64.1456   O.3       1 RES1  -1.0000
    21 O21     25.6113  11.7390  62.2586   O.2       1 RES1   0.0000
    22 H1      25.5648  10.3866  60.1549   H         1 RES1   0.0000
    23 H2      25.7460   8.2247  58.9257   H         1 RES1   0.0000
    24 H3      26.3080   8.3067  63.9148   H         1 RES1   0.0000
    25 H4      26.2096   6.0946  60.1606   H         1 RES1   0.0000
    26 H5      25.2667   4.3559  63.1586   H         1 RES1   0.0000
    27 H6      30.9379   9.9661  65.0068   H         1 RES1   0.0000
    28 H7      31.8640   9.1723  63.7127   H         1 RES1   0.0000
    29 H8      30.1558   8.7506  63.9708   H         1 RES1   0.0000
    30 H9      31.6544   7.0698  64.8115   H         1 RES1   0.0000
    31 H10     32.4365   8.2853  65.8475   H         1 RES1   0.0000
    32 H11     31.1517   7.6771  67.4913   H         1 RES1   0.0000
    33 H12     29.7242   8.2055  66.5718   H         1 RES1   0.0000
    34 H13     26.3997   3.0971  63.6862   H         1 RES1   0.0000
    35 H14     27.3911   2.3900  64.9541   H         1 RES1   0.0000
@<TRIPOS>BOND
     1     1     2    2
     2     1    14    1
     3     2     3    1
     4     2     4    1
     5     4     5    2
     6     4    13    1
     7     5     6    1
     8     5    12    1
     9     6     7    2
    10     6    11    1
    11     7     8    1
    12     8     9    2
    13     8    19    1
    14     9    10    1
    15    10    11    2
    16    13    14    1
    17    14    15    2
    18    15    16    1
    19    16    17    1
    20    17    18    1
    21    19    20    1
    22    19    21    2
    23     9    22    1
    24    10    23    1
    25     7    24    1
    26    11    25    1
    27    12    26    1
    28    18    27    1
    29    18    28    1
    30    18    29    1
    31    17    30    1
    32    17    31    1
    33    16    32    1
    34    16    33    1
    35     3    34    1
    36     3    35    1
@<TRIPOS>SUBSTRUCTURE
     1 RES1        1 GROUP             0 ****  ****    0  
@<TRIPOS>MOLECULE
4CFU:A:2WC1299
    51    54     1     0     0
SMALL
NO_CHARGES
****
Generated from the CSD

@<TRIPOS>ATOM
     1 C1      26.3719   6.8660  59.7484   C.3       1 RES1   0.0000
     2 C2      26.9869   7.9840  58.9753   C.3       1 RES1   0.0000
     3 C3      25.8929   8.8980  58.3213   C.3       1 RES1   0.0000
     4 C4      24.7559   9.3400  59.2974   C.3       1 RES1   0.0000
     5 C5      24.1879   8.0550  60.0714   C.3       1 RES1   0.0000
     6 C6      25.4209   7.5130  60.7805   C.3       1 RES1   0.0000
     7 C7      25.0479   6.5830  61.8596   C.3       1 RES1   0.0000
     8 O8      25.9879   7.0630  62.8646   O.3       1 RES1   0.0000
     9 C9      26.6379   6.0940  63.5887   C.2       1 RES1   0.0000
    10 N10     26.2199   4.7980  63.6317   N.2       1 RES1   0.0000
    11 C11     26.9109   3.9090  64.4117   C.2       1 RES1   0.0000
    12 N12     26.4699   2.6650  64.4788   N.pl3     1 RES1   0.0000
    13 N13     27.9799   4.3000  65.1338   N.2       1 RES1   0.0000
    14 C14     28.3679   5.5930  65.0568   C.2       1 RES1   0.0000
    15 N15     29.4099   6.2310  65.5778   N.pl3     1 RES1   0.0000
    16 C16     27.7359   6.5040  64.2737   C.2       1 RES1   0.0000
    17 N17     28.3799   7.7110  64.3597   N.2       1 RES1   0.0000
    18 C18     29.4139   7.5330  65.1958   C.2       1 RES1   0.0000
    19 C19     30.3479   8.4350  65.5988   C.2       1 RES1   0.0000
    20 C20     30.7749   8.4200  66.9309   C.2       1 RES1   0.0000
    21 C21     31.7349   9.3360  67.3960   C.2       1 RES1   0.0000
    22 C22     32.3299  10.2660  66.5149   C.2       1 RES1   0.0000
    23 C23     31.9099  10.2930  65.1718   C.2       1 RES1   0.0000
    24 C24     32.4959  11.2200  64.2737   C.2       1 RES1   0.0000
    25 O25     33.2159  10.7810  63.3347   O.2       1 RES1   0.0000
    26 O26     32.2549  12.4690  64.3437   O.3       1 RES1   0.0000
    27 C27     30.9449   9.3790  64.6938   C.2       1 RES1   0.0000
    28 C28     30.5449   9.4180  63.3137   C.3       1 RES1   0.0000
    29 H1      32.0227   9.3284  68.4463   H         1 RES1   0.0000
    30 H2      32.5367  12.8112  65.2323   H         1 RES1   0.0000
    31 H3      30.3569   7.6868  67.6190   H         1 RES1   0.0000
    32 H4      23.9520   9.8074  58.7307   H         1 RES1   0.0000
    33 H5      25.1532  10.0524  60.0189   H         1 RES1   0.0000
    34 H6      33.1000  10.9500  66.8685   H         1 RES1   0.0000
    35 H7      29.4800   9.6369  63.2504   H         1 RES1   0.0000
    36 H8      31.1064  10.1935  62.7948   H         1 RES1   0.0000
    37 H9      30.7453   8.4531  62.8503   H         1 RES1   0.0000
    38 H10     25.4400   8.3505  57.4960   H         1 RES1   0.0000
    39 H11     26.3808   9.7932  57.9386   H         1 RES1   0.0000
    40 H12     25.2261   5.5432  61.5896   H         1 RES1   0.0000
    41 H13     24.0115   6.7048  62.1709   H         1 RES1   0.0000
    42 H14     30.1071   5.8035  66.1789   H         1 RES1   0.0000
    43 H15     26.9602   1.9828  65.0483   H         1 RES1   0.0000
    44 H16     25.6409   2.3918  63.9608   H         1 RES1   0.0000
    45 H17     23.7844   7.3235  59.3728   H         1 RES1   0.0000
    46 H18     23.4170   8.3375  60.7868   H         1 RES1   0.0000
    47 H19     25.9427   8.3554  61.2322   H         1 RES1   0.0000
    48 H20     27.1445   6.2919  60.2577   H         1 RES1   0.0000
    49 H21     25.8131   6.2110  59.0816   H         1 RES1   0.0000
    50 H22     27.6162   7.5676  58.1901   H         1 RES1   0.0000
    51 H23     27.5961   8.5864  59.6475   H         1 RES1   0.0000
@<TRIPOS>BOND
     1     1     2    1
     2     1     6    1
     3     2     3    1
     4     3     4    1
     5     4     5    1
     6     5     6    1
     7     6     7    1
     8     7     8    1
     9     8     9    1
    10     9    10    2
    11     9    16    1
    12    10    11    1
    13    11    12    1
    14    11    13    2
    15    13    14    1
    16    14    15    1
    17    14    16    2
    18    15    18    1
    19    16    17    1
    20    17    18    2
    21    18    19    1
    22    19    20    2
    23    19    27    1
    24    20    21    1
    25    21    22    2
    26    22    23    1
    27    23    24    1
    28    23    27    2
    29    24    25    2
    30    24    26    1
    31    27    28    1
    32    21    29    1
    33    26    30    1
    34    20    31    1
    35     4    32    1
    36     4    33    1
    37    22    34    1
    38    28    35    1
    39    28    36    1
    40    28    37    1
    41     3    38    1
    42     3    39    1
    43     7    40    1
    44     7    41    1
    45    15    42    1
    46    12    43    1
    47    12    44    1
    48     5    45    1
    49     5    46    1
    50     6    47    1
    51     1    48    1
    52     1    49    1
    53     2    50    1
    54     2    51    1
@<TRIPOS>SUBSTRUCTURE
     1 RES1        1 GROUP             0 ****  ****    0  
@<TRIPOS>MOLECULE
2B54:A:D05300
    45    48     1     0     0
SMALL
NO_CHARGES
****
Generated from the CSD

@<TRIPOS>ATOM
     1 N1      29.7214   6.7482  65.0978   N.am      1 RES1   0.0000
     2 C2      29.8354   7.9162  64.3978   C.2       1 RES1   0.0000
     3 N3      28.8764   8.4162  63.5908   N.2       1 RES1   0.0000
     4 C4      27.7245   7.7092  63.4897   C.2       1 RES1   0.0000
     5 C5      27.5335   6.4972  64.2038   C.2       1 RES1   0.0000
     6 C6      28.5595   6.0371  65.0148   C.2       1 RES1   0.0000
     7 N7      26.6055   7.9582  62.6977   N.pl3     1 RES1   0.0000
     8 N8      25.6695   6.9672  62.9057   N.2       1 RES1   0.0000
     9 C9      26.1895   6.0911  63.7948   C.2       1 RES1   0.0000
    10 O10     28.4165   4.9601  65.5998   O.2       1 RES1   0.0000
    11 C11     26.5055   8.9902  61.7027   C.2       1 RES1   0.0000
    12 C12     26.5385   8.6082  60.3697   C.2       1 RES1   0.0000
    13 C13     26.2915  10.3592  61.9477   C.2       1 RES1   0.0000
    14 C14     26.3485   9.5362  59.3157   C.2       1 RES1   0.0000
    15 C15     26.1085  11.2933  60.9147   C.2       1 RES1   0.0000
    16 C16     26.1235  10.9033  59.5787   C.2       1 RES1   0.0000
    17 Cl17    25.7985  12.1133  58.2977   Cl        1 RES1   0.0000
    18 C18     25.3655   4.8811  64.1248   C.3       1 RES1   0.0000
    19 C19     25.7305   3.7081  63.2187   C.3       1 RES1   0.0000
    20 C20     31.1384   8.7062  64.4618   C.3       1 RES1   0.0000
    21 Cl21    26.9215   6.9372  60.0367   Cl        1 RES1   0.0000
    22 Cl22    26.2525  11.0173  63.5317   Cl        1 RES1   0.0000
    23 C23     31.3214   9.5332  65.7238   C.2       1 RES1   0.0000
    24 C24     30.9744  10.9073  65.7618   C.2       1 RES1   0.0000
    25 C25     31.1044  11.6163  66.9908   C.2       1 RES1   0.0000
    26 C26     31.5724  10.9573  68.1408   C.2       1 RES1   0.0000
    27 C27     31.9524   9.5972  68.0848   C.2       1 RES1   0.0000
    28 C28     31.8244   8.8992  66.8728   C.2       1 RES1   0.0000
    29 O29     30.7414  12.9553  67.1148   O.3       1 RES1   0.0000
    30 O30     31.6034  11.6373  69.3508   O.3       1 RES1   0.0000
    31 H1      30.6145  11.4124  64.8666   H         1 RES1   0.0000
    32 H2      26.7828   3.4610  63.3509   H         1 RES1   0.0000
    33 H3      25.1195   2.8449  63.4785   H         1 RES1   0.0000
    34 H4      25.5496   3.9816  62.1802   H         1 RES1   0.0000
    35 H5      24.3116   5.1204  63.9907   H         1 RES1   0.0000
    36 H6      25.5449   4.5998  65.1614   H         1 RES1   0.0000
    37 H7      29.7769  13.0579  66.9018   H         1 RES1   0.0000
    38 H8      25.9520  12.3418  61.1637   H         1 RES1   0.0000
    39 H9      26.3767   9.1875  58.2844   H         1 RES1   0.0000
    40 H10     32.1190   7.8520  66.8227   H         1 RES1   0.0000
    41 H11     31.1678   9.3809  63.6075   H         1 RES1   0.0000
    42 H12     31.9656   8.0010  64.3960   H         1 RES1   0.0000
    43 H13     32.3398   9.0964  68.9708   H         1 RES1   0.0000
    44 H14     30.4896   6.4144  65.6711   H         1 RES1   0.0000
    45 H15     30.6846  11.9274  69.5911   H         1 RES1   0.0000
@<TRIPOS>BOND
     1     1     2    1
     2     1     6   am
     3     2     3    2
     4     2    20    1
     5     3     4    1
     6     4     5    2
     7     4     7    1
     8     5     6    1
     9     5     9    1
    10     6    10    2
    11     7     8    1
    12     7    11    1
    13     8     9    2
    14     9    18    1
    15    11    12    2
    16    11    13    1
    17    12    14    1
    18    12    21    1
    19    13    15    2
    20    13    22    1
    21    14    16    2
    22    15    16    1
    23    16    17    1
    24    18    19    1
    25    20    23    1
    26    23    24    2
    27    23    28    1
    28    24    25    1
    29    25    26    2
    30    25    29    1
    31    26    27    1
    32    26    30    1
    33    27    28    2
    34    24    31    1
    35    19    32    1
    36    19    33    1
    37    19    34    1
    38    18    35    1
    39    18    36    1
    40    29    37    1
    41    15    38    1
    42    14    39    1
    43    28    40    1
    44    20    41    1
    45    20    42    1
    46    27    43    1
    47     1    44    1
    48    30    45    1
@<TRIPOS>SUBSTRUCTURE
     1 RES1        1 GROUP             0 ****  ****    0  
@<TRIPOS>MOLECULE
2VTH:A:LZ21300
    24    25     1     0     0
SMALL
NO_CHARGES
****
Generated from the CSD

@<TRIPOS>ATOM
     1 N1      26.4327   7.6889  60.3857   N.pl3     1 RES1   0.0000
     2 S2      26.2957   8.5019  61.7617   S.o2      1 RES1   0.0000
     3 O3      27.0247   9.7339  61.6107   O.2       1 RES1   0.0000
     4 O4      24.9007   8.5479  62.0987   O.2       1 RES1   0.0000
     5 C5      27.1097   7.5759  63.0247   C.2       1 RES1   0.0000
     6 C6      28.1227   8.2059  63.7397   C.2       1 RES1   0.0000
     7 C7      28.8046   7.5259  64.7217   C.2       1 RES1   0.0000
     8 C8      28.4857   6.2089  65.0097   C.2       1 RES1   0.0000
     9 C9      27.4697   5.5440  64.3127   C.2       1 RES1   0.0000
    10 C10     27.1337   4.2040  64.5807   C.2       1 RES1   0.0000
    11 O11     27.8177   3.5430  65.5477   O.3       1 RES1   0.0000
    12 C12     26.1217   3.5760  63.8717   C.2       1 RES1   0.0000
    13 C13     25.4417   4.2590  62.8827   C.2       1 RES1   0.0000
    14 C14     25.7637   5.5720  62.5917   C.2       1 RES1   0.0000
    15 C15     26.7737   6.2409  63.2947   C.2       1 RES1   0.0000
    16 H1      25.9856   6.7833  60.2846   H         1 RES1   0.0000
    17 H2      26.9664   8.0801  59.6161   H         1 RES1   0.0000
    18 H3      28.3771   9.2420  63.5211   H         1 RES1   0.0000
    19 H4      29.5986   8.0249  65.2752   H         1 RES1   0.0000
    20 H5      29.0336   5.6828  65.7901   H         1 RES1   0.0000
    21 H6      27.6995   4.0110  66.4155   H         1 RES1   0.0000
    22 H7      25.8624   2.5422  64.0950   H         1 RES1   0.0000
    23 H8      24.6474   3.7608  62.3288   H         1 RES1   0.0000
    24 H9      25.2234   6.0942  61.8034   H         1 RES1   0.0000
@<TRIPOS>BOND
     1     1     2    1
     2     2     3    2
     3     2     4    2
     4     2     5    1
     5     5     6    2
     6     5    15    1
     7     6     7    1
     8     7     8    2
     9     8     9    1
    10     9    10    1
    11     9    15    2
    12    10    11    1
    13    10    12    2
    14    12    13    1
    15    13    14    2
    16    14    15    1
    17     1    16    1
    18     1    17    1
    19     6    18    1
    20     7    19    1
    21     8    20    1
    22    11    21    1
    23    12    22    1
    24    13    23    1
    25    14    24    1
@<TRIPOS>SUBSTRUCTURE
     1 RES1        1 GROUP             0 ****  ****    0  
@<TRIPOS>MOLECULE
4LYN:A:1YG301
    50    52     1     0     0
SMALL
NO_CHARGES
****
Generated from the CSD

@<TRIPOS>ATOM
     1 C1      24.8986   7.9301  61.1345   C.2       1 RES1   0.0000
     2 C2      23.5405   7.6811  61.2815   C.2       1 RES1   0.0000
     3 C3      25.6736   9.2131  60.8375   C.3       1 RES1   0.0000
     4 C4      26.2826   4.6091  64.4654   C.2       1 RES1   0.0000
     5 C5      24.7716  10.4351  60.9985   C.3       1 RES1   0.0000
     6 C6      26.2006   9.1781  59.4046   C.3       1 RES1   0.0000
     7 C7      26.8496   9.3491  61.8055   C.3       1 RES1   0.0000
     8 C8      27.1666   3.7460  65.0274   C.2       1 RES1   0.0000
     9 C9      28.3776   5.5531  65.2454   C.2       1 RES1   0.0000
    10 N10     23.3465   6.3711  61.6215   N.2       1 RES1   0.0000
    11 C11     24.5666   5.8431  61.6705   C.2       1 RES1   0.0000
    12 O12     25.5546   6.7391  61.3695   O.3       1 RES1   0.0000
    13 C13     24.9276   4.4791  62.1005   C.3       1 RES1   0.0000
    14 S14     24.6406   4.4191  63.8755   S.3       1 RES1   0.0000
    15 N15     28.3406   4.2741  65.4944   N.2       1 RES1   0.0000
    16 N16     29.5487   6.2541  65.4654   N.am      1 RES1   0.0000
    17 C17     29.8217   7.5211  65.0234   C.2       1 RES1   0.0000
    18 O18     29.0357   8.1911  64.3604   O.2       1 RES1   0.0000
    19 C19     31.2207   8.0281  65.3654   C.3       1 RES1   0.0000
    20 C20     31.9107   8.5351  64.0975   C.3       1 RES1   0.0000
    21 C21     31.0987   9.0781  66.4624   C.2       1 RES1   0.0000
    22 C22     30.7907  10.4051  66.1774   C.2       1 RES1   0.0000
    23 C23     30.7727  11.3601  67.1834   C.2       1 RES1   0.0000
    24 C24     31.0447  10.9971  68.4883   C.2       1 RES1   0.0000
    25 C25     31.3147   9.6771  68.7893   C.2       1 RES1   0.0000
    26 C26     31.3427   8.7231  67.7824   C.2       1 RES1   0.0000
    27 S27     26.9676   6.2171  64.4724   S.3       1 RES1   0.0000
    28 H1      27.5144   8.4942  61.6914   H         1 RES1   0.0000
    29 H2      27.3958  10.2655  61.5867   H         1 RES1   0.0000
    30 H3      26.4760   9.3845  62.8278   H         1 RES1   0.0000
    31 H4      25.3643   9.0938  58.7122   H         1 RES1   0.0000
    32 H5      26.7519  10.0943  59.1981   H         1 RES1   0.0000
    33 H6      26.8614   8.3213  59.2817   H         1 RES1   0.0000
    34 H7      26.9518   2.6811  65.1035   H         1 RES1   0.0000
    35 H8      24.3969  10.4777  62.0201   H         1 RES1   0.0000
    36 H9      25.3414  11.3378  60.7829   H         1 RES1   0.0000
    37 H10     23.9334  10.3612  60.3072   H         1 RES1   0.0000
    38 H11     31.0461  11.7490  69.2761   H         1 RES1   0.0000
    39 H12     30.5614  10.6969  65.1536   H         1 RES1   0.0000
    40 H13     31.3277   9.3480  63.6673   H         1 RES1   0.0000
    41 H14     32.9078   8.8955  64.3462   H         1 RES1   0.0000
    42 H15     31.9878   7.7226  63.3765   H         1 RES1   0.0000
    43 H16     31.7992   7.1926  65.7568   H         1 RES1   0.0000
    44 H17     31.5583   7.6848  68.0299   H         1 RES1   0.0000
    45 H18     30.5438  12.3975  66.9441   H         1 RES1   0.0000
    46 H19     30.2718   5.7873  66.0034   H         1 RES1   0.0000
    47 H20     31.5063   9.3838  69.8204   H         1 RES1   0.0000
    48 H21     25.9752   4.2789  61.8806   H         1 RES1   0.0000
    49 H22     24.3034   3.7456  61.5923   H         1 RES1   0.0000
    50 H23     22.7498   8.4176  61.1465   H         1 RES1   0.0000
@<TRIPOS>BOND
     1     1     2    2
     2     1     3    1
     3     1    12    1
     4     2    10    1
     5     3     5    1
     6     3     6    1
     7     3     7    1
     8     4     8    2
     9     4    14    1
    10     4    27    1
    11     8    15    1
    12     9    15    2
    13     9    16    1
    14     9    27    1
    15    10    11    2
    16    11    12    1
    17    11    13    1
    18    13    14    1
    19    16    17   am
    20    17    18    2
    21    17    19    1
    22    19    20    1
    23    19    21    1
    24    21    22    2
    25    21    26    1
    26    22    23    1
    27    23    24    2
    28    24    25    1
    29    25    26    2
    30     7    28    1
    31     7    29    1
    32     7    30    1
    33     6    31    1
    34     6    32    1
    35     6    33    1
    36     8    34    1
    37     5    35    1
    38     5    36    1
    39     5    37    1
    40    24    38    1
    41    22    39    1
    42    20    40    1
    43    20    41    1
    44    20    42    1
    45    19    43    1
    46    26    44    1
    47    23    45    1
    48    16    46    1
    49    25    47    1
    50    13    48    1
    51    13    49    1
    52     2    50    1
@<TRIPOS>SUBSTRUCTURE
     1 RES1        1 GROUP             0 ****  ****    0  
@<TRIPOS>MOLECULE
3RJC:A:06Z450
    34    36     1     0     0
SMALL
NO_CHARGES
****
Generated from the CSD

@<TRIPOS>ATOM
     1 F1      32.8827   9.3248  68.0990   F         1 RES1   0.0000
     2 N2      28.5816   4.2569  65.3290   N.2       1 RES1   0.0000
     3 C3      27.4716   3.9689  64.5650   C.2       1 RES1   0.0000
     4 N4      27.0006   2.7320  64.5470   N.pl3     1 RES1   0.0000
     5 C5      26.9076   5.0299  63.8160   C.2       1 RES1   0.0000
     6 C6      25.7465   4.9219  62.9220   C.2       1 RES1   0.0000
     7 C7      25.2555   6.1089  62.1180   C.2       1 RES1   0.0000
     8 C8      26.1815   6.9259  61.3310   C.2       1 RES1   0.0000
     9 C9      25.7165   8.0389  60.5590   C.2       1 RES1   0.0000
    10 C10     24.3125   8.3579  60.5550   C.2       1 RES1   0.0000
    11 C11     23.3795   7.5619  61.3240   C.2       1 RES1   0.0000
    12 C12     23.8475   6.4379  62.1050   C.2       1 RES1   0.0000
    13 O13     25.1495   3.8269  62.7760   O.2       1 RES1   0.0000
    14 S14     27.8636   6.4589  64.1490   S.3       1 RES1   0.0000
    15 C15     28.9046   5.5109  65.2040   C.2       1 RES1   0.0000
    16 N16     30.0076   5.9989  65.8710   N.pl3     1 RES1   0.0000
    17 C17     30.6356   7.2759  65.9420   C.2       1 RES1   0.0000
    18 C18     31.4907   7.6589  67.0560   C.2       1 RES1   0.0000
    19 C19     32.0957   8.9888  67.0540   C.2       1 RES1   0.0000
    20 C20     31.8797   9.9418  65.9920   C.2       1 RES1   0.0000
    21 C21     31.0286   9.5528  64.8780   C.2       1 RES1   0.0000
    22 C22     30.4126   8.2359  64.8480   C.2       1 RES1   0.0000
    23 H1      30.8518  10.2519  64.0619   H         1 RES1   0.0000
    24 H2      29.7794   7.9566  64.0072   H         1 RES1   0.0000
    25 H3      31.6761   6.9667  67.8760   H         1 RES1   0.0000
    26 H4      30.4742   5.2953  66.4344   H         1 RES1   0.0000
    27 H5      32.3421  10.9272  66.0237   H         1 RES1   0.0000
    28 H6      22.3193   7.8107  61.3145   H         1 RES1   0.0000
    29 H7      23.1418   5.8414  62.6813   H         1 RES1   0.0000
    30 H8      26.4181   8.6382  59.9806   H         1 RES1   0.0000
    31 H9      23.9506   9.2024  59.9704   H         1 RES1   0.0000
    32 H10     26.1836   2.5082  63.9879   H         1 RES1   0.0000
    33 H11     27.4565   2.0074  65.0923   H         1 RES1   0.0000
    34 H12     27.2430   6.6827  61.3328   H         1 RES1   0.0000
@<TRIPOS>BOND
     1     1    19    1
     2     2     3    1
     3     2    15    2
     4     3     4    1
     5     3     5    2
     6     5     6    1
     7     5    14    1
     8     6     7    1
     9     6    13    2
    10     7     8    2
    11     7    12    1
    12     8     9    1
    13     9    10    2
    14    10    11    1
    15    11    12    2
    16    14    15    1
    17    15    16    1
    18    16    17    1
    19    17    18    2
    20    17    22    1
    21    18    19    1
    22    19    20    2
    23    20    21    1
    24    21    22    2
    25    21    23    1
    26    22    24    1
    27    18    25    1
    28    16    26    1
    29    20    27    1
    30    11    28    1
    31    12    29    1
    32     9    30    1
    33    10    31    1
    34     4    32    1
    35     4    33    1
    36     8    34    1
@<TRIPOS>SUBSTRUCTURE
     1 RES1        1 GROUP             0 ****  ****    0  
@<TRIPOS>MOLECULE
3R8P:A:Z46511
    34    35     1     0     0
SMALL
NO_CHARGES
****
Generated from the CSD

@<TRIPOS>ATOM
     1 N1      28.4284   4.4509  65.4503   N.pl3     1 RES1   0.0000
     2 N2      27.5645   3.6109  64.8923   N.pl3     1 RES1   0.0000
     3 C3      26.7655   4.2879  64.0363   C.2       1 RES1   0.0000
     4 C4      27.1355   5.6378  64.0463   C.2       1 RES1   0.0000
     5 C5      28.2005   5.6988  64.9553   C.2       1 RES1   0.0000
     6 C6      28.9954   6.8868  65.3583   C.2       1 RES1   0.0000
     7 N7      30.0064   6.7508  66.2623   N.am      1 RES1   0.0000
     8 N8      30.8084   7.8768  66.4973   N.3       1 RES1   0.0000
     9 O9      28.7124   8.0908  64.8173   O.2       1 RES1   0.0000
    10 C10     25.7385   3.7279  63.2613   C.2       1 RES1   0.0000
    11 C11     24.8175   4.7959  62.5593   C.3       1 RES1   0.0000
    12 C12     25.6285   6.0348  62.0283   C.3       1 RES1   0.0000
    13 C13     26.4445   6.7058  63.1933   C.3       1 RES1   0.0000
    14 C14     24.6665   7.0718  61.3553   C.3       1 RES1   0.0000
    15 C15     25.4035   8.1448  60.5393   C.3       1 RES1   0.0000
    16 C16     25.9595   7.5488  59.2593   C.3       1 RES1   0.0000
    17 H1      25.1428   7.1477  58.6610   H         1 RES1   0.0000
    18 H2      26.4779   8.3220  58.6941   H         1 RES1   0.0000
    19 H3      26.6569   6.7490  59.5043   H         1 RES1   0.0000
    20 H4      26.2230   8.5469  61.1331   H         1 RES1   0.0000
    21 H5      24.7089   8.9456  60.2898   H         1 RES1   0.0000
    22 H6      24.0907   7.5664  62.1362   H         1 RES1   0.0000
    23 H7      23.9909   6.5356  60.6905   H         1 RES1   0.0000
    24 H8      27.1974   7.3681  62.7686   H         1 RES1   0.0000
    25 H9      25.7662   7.2823  63.8206   H         1 RES1   0.0000
    26 H10     30.2319   8.6359  66.8461   H         1 RES1   0.0000
    27 H11     31.5193   7.6483  67.1848   H         1 RES1   0.0000
    28 H12     30.1715   5.8729  66.7443   H         1 RES1   0.0000
    29 H13     26.3332   5.6844  61.2756   H         1 RES1   0.0000
    30 H14     29.1393   4.2042  66.1315   H         1 RES1   0.0000
    31 H15     27.5119   2.6147  65.0793   H         1 RES1   0.0000
    32 H16     24.0773   5.1450  63.2778   H         1 RES1   0.0000
    33 H17     24.3124   4.3228  61.7185   H         1 RES1   0.0000
    34 H18     25.5917   2.6541  63.1549   H         1 RES1   0.0000
@<TRIPOS>BOND
     1     1     2    1
     2     1     5    1
     3     2     3    1
     4     3     4    1
     5     3    10    2
     6     4     5    2
     7     4    13    1
     8     5     6    1
     9     6     7   am
    10     6     9    2
    11     7     8    1
    12    10    11    1
    13    11    12    1
    14    12    13    1
    15    12    14    1
    16    14    15    1
    17    15    16    1
    18    16    17    1
    19    16    18    1
    20    16    19    1
    21    15    20    1
    22    15    21    1
    23    14    22    1
    24    14    23    1
    25    13    24    1
    26    13    25    1
    27     8    26    1
    28     8    27    1
    29     7    28    1
    30    12    29    1
    31     1    30    1
    32     2    31    1
    33    11    32    1
    34    11    33    1
    35    10    34    1
@<TRIPOS>SUBSTRUCTURE
     1 RES1        1 GROUP             0 ****  ****    0  
@<TRIPOS>MOLECULE
2FVD:A:LIA299
    51    53     1     0     0
SMALL
NO_CHARGES
****
Generated from the CSD

@<TRIPOS>ATOM
     1 N1      32.7291   9.3318  65.1751   N.3       1 RES1   0.0000
     2 C2      31.9692   9.6048  66.4271   C.3       1 RES1   0.0000
     3 C3      31.1952   8.3368  66.8461   C.3       1 RES1   0.0000
     4 C4      30.2312   7.8838  65.7201   C.3       1 RES1   0.0000
     5 C5      30.9972   7.7618  64.3570   C.3       1 RES1   0.0000
     6 C6      31.7912   9.0488  64.0480   C.3       1 RES1   0.0000
     7 N7      29.6382   6.5998  66.1181   N.pl3     1 RES1   0.0000
     8 C8      28.5472   6.2289  65.3901   C.2       1 RES1   0.0000
     9 N9      27.8183   7.1388  64.6881   N.2       1 RES1   0.0000
    10 C10     26.7923   6.7558  63.9940   C.2       1 RES1   0.0000
    11 C11     26.3653   5.3709  63.9230   C.2       1 RES1   0.0000
    12 C12     27.1593   4.4359  64.6901   C.2       1 RES1   0.0000
    13 N13     28.2373   4.8989  65.4071   N.2       1 RES1   0.0000
    14 C14     25.2123   5.0059  63.1120   C.2       1 RES1   0.0000
    15 O15     24.8053   3.8319  63.0830   O.2       1 RES1   0.0000
    16 C16     24.5274   5.9869  62.3020   C.2       1 RES1   0.0000
    17 C17     23.1754   6.3579  62.6330   C.2       1 RES1   0.0000
    18 C18     22.4804   7.3338  61.8530   C.2       1 RES1   0.0000
    19 C19     23.1144   7.9558  60.7379   C.2       1 RES1   0.0000
    20 C20     24.4474   7.6048  60.3859   C.2       1 RES1   0.0000
    21 C21     25.1823   6.6198  61.1529   C.2       1 RES1   0.0000
    22 O22     26.5053   6.2399  60.8349   O.3       1 RES1   0.0000
    23 C23     27.2173   7.2408  60.0659   C.3       1 RES1   0.0000
    24 F24     22.5504   5.7999  63.6660   F         1 RES1   0.0000
    25 F25     21.2424   7.6688  62.1640   F         1 RES1   0.0000
    26 N26     26.9013   3.1159  64.7391   N.pl3     1 RES1   0.0000
    27 S27     33.7571  10.6288  64.8021   S.o2      1 RES1   0.0000
    28 C28     32.8401  12.1547  64.3890   C.3       1 RES1   0.0000
    29 O29     34.5511  10.2468  63.6550   O.2       1 RES1   0.0000
    30 O30     34.6221  10.8738  65.9241   O.2       1 RES1   0.0000
    31 H1      24.9211   8.0824  59.5295   H         1 RES1   0.0000
    32 H2      32.2243  12.4491  65.2376   H         1 RES1   0.0000
    33 H3      33.5460  12.9514  64.1590   H         1 RES1   0.0000
    34 H4      32.2036  11.9728  63.5243   H         1 RES1   0.0000
    35 H5      27.4911   2.5038  65.2938   H         1 RES1   0.0000
    36 H6      26.1169   2.7325  64.2214   H         1 RES1   0.0000
    37 H7      22.5770   8.7016  60.1540   H         1 RES1   0.0000
    38 H8      27.2691   8.1673  60.6358   H         1 RES1   0.0000
    39 H9      28.2256   6.8873  59.8553   H         1 RES1   0.0000
    40 H10     26.6923   7.4199  59.1288   H         1 RES1   0.0000
    41 H11     26.2274   7.5049  63.4412   H         1 RES1   0.0000
    42 H12     30.0109   6.0345  66.8742   H         1 RES1   0.0000
    43 H13     32.3580   8.9146  63.1279   H         1 RES1   0.0000
    44 H14     31.1010   9.8829  63.9308   H         1 RES1   0.0000
    45 H15     30.2771   7.5880  63.5588   H         1 RES1   0.0000
    46 H16     31.6884   6.9220  64.4115   H         1 RES1   0.0000
    47 H17     29.4379   8.6224  65.6152   H         1 RES1   0.0000
    48 H18     30.6189   8.5509  67.7450   H         1 RES1   0.0000
    49 H19     31.9049   7.5369  67.0519   H         1 RES1   0.0000
    50 H20     31.2665  10.4188  66.2550   H         1 RES1   0.0000
    51 H21     32.6625   9.8850  67.2187   H         1 RES1   0.0000
@<TRIPOS>BOND
     1     1     2    1
     2     1     6    1
     3     1    27    1
     4     2     3    1
     5     3     4    1
     6     4     5    1
     7     4     7    1
     8     5     6    1
     9     7     8    1
    10     8     9    2
    11     8    13    1
    12     9    10    1
    13    10    11    2
    14    11    12    1
    15    11    14    1
    16    12    13    2
    17    12    26    1
    18    14    15    2
    19    14    16    1
    20    16    17    2
    21    16    21    1
    22    17    18    1
    23    17    24    1
    24    18    19    2
    25    18    25    1
    26    19    20    1
    27    20    21    2
    28    21    22    1
    29    22    23    1
    30    27    28    1
    31    27    29    2
    32    27    30    2
    33    20    31    1
    34    28    32    1
    35    28    33    1
    36    28    34    1
    37    26    35    1
    38    26    36    1
    39    19    37    1
    40    23    38    1
    41    23    39    1
    42    23    40    1
    43    10    41    1
    44     7    42    1
    45     6    43    1
    46     6    44    1
    47     5    45    1
    48     5    46    1
    49     4    47    1
    50     3    48    1
    51     3    49    1
    52     2    50    1
    53     2    51    1
@<TRIPOS>SUBSTRUCTURE
     1 RES1        1 GROUP             0 ****  ****    0  
@<TRIPOS>MOLECULE
3QTZ:A:X42453
    39    41     1     0     0
SMALL
NO_CHARGES
****
Generated from the CSD

@<TRIPOS>ATOM
     1 N1      28.4506   4.2860  65.3548   N.pl3     1 RES1   0.0000
     2 N2      29.6897   6.0811  65.8908   N.2       1 RES1   0.0000
     3 N3      26.9226   2.7530  64.5477   N.pl3     1 RES1   0.0000
     4 N4      32.3907  11.9441  64.0237   N.pl3     1 RES1   0.0000
     5 C5      26.7806   4.9861  63.8367   C.2       1 RES1   0.0000
     6 C6      27.3586   3.9450  64.5767   C.2       1 RES1   0.0000
     7 C7      28.7147   5.5651  65.2248   C.2       1 RES1   0.0000
     8 C8      30.4087   7.1221  65.6298   C.2       1 RES1   0.0000
     9 C9      25.6746   4.8741  62.9837   C.2       1 RES1   0.0000
    10 C10     25.2476   5.9421  62.1907   C.2       1 RES1   0.0000
    11 C11     26.1726   6.6821  61.3647   C.2       1 RES1   0.0000
    12 C12     25.7166   7.7671  60.5686   C.2       1 RES1   0.0000
    13 C13     24.3446   8.1311  60.5756   C.2       1 RES1   0.0000
    14 C14     23.4215   7.4111  61.3747   C.2       1 RES1   0.0000
    15 C15     23.8625   6.3191  62.1837   C.2       1 RES1   0.0000
    16 C16     31.4137   7.4651  66.5868   C.2       1 RES1   0.0000
    17 C17     32.2567   8.5771  66.3658   C.2       1 RES1   0.0000
    18 C18     32.0987   9.3561  65.1818   C.2       1 RES1   0.0000
    19 C19     31.1027   9.0341  64.2307   C.2       1 RES1   0.0000
    20 C20     30.2607   7.9251  64.4477   C.2       1 RES1   0.0000
    21 O21     25.0606   3.8090  62.9337   O.2       1 RES1   0.0000
    22 O22     34.2678  10.2341  64.0847   O.2       1 RES1   0.0000
    23 O23     33.6908  11.2171  66.1478   O.2       1 RES1   0.0000
    24 F24     22.1395   7.7611  61.3717   F         1 RES1   0.0000
    25 S25     27.6686   6.4311  64.1527   S.3       1 RES1   0.0000
    26 S26     33.1768  10.7161  64.8848   S.o2      1 RES1   0.0000
    27 H1      29.4940   7.6755  63.7157   H         1 RES1   0.0000
    28 H2      28.9714   3.6412  65.9406   H         1 RES1   0.0000
    29 H3      33.0223   8.8377  67.0950   H         1 RES1   0.0000
    30 H4      23.1469   5.7721  62.7958   H         1 RES1   0.0000
    31 H5      24.0006   8.9652  59.9658   H         1 RES1   0.0000
    32 H6      26.4220   8.3212  59.9511   H         1 RES1   0.0000
    33 H7      32.8907  12.7931  63.7800   H         1 RES1   0.0000
    34 H8      31.4195  11.8312  63.7513   H         1 RES1   0.0000
    35 H9      26.1203   2.5200  63.9713   H         1 RES1   0.0000
    36 H10     27.3763   2.0330  65.1009   H         1 RES1   0.0000
    37 H11     30.9869   9.6410  63.3339   H         1 RES1   0.0000
    38 H12     27.2262   6.4069  61.3519   H         1 RES1   0.0000
    39 H13     31.5299   6.8671  67.4895   H         1 RES1   0.0000
@<TRIPOS>BOND
     1     1     6    1
     2     1     7    1
     3     2     7    2
     4     2     8    1
     5     3     6    1
     6     4    26    1
     7     5     6    2
     8     5     9    1
     9     5    25    1
    10     7    25    1
    11     8    16    2
    12     8    20    1
    13     9    10    1
    14     9    21    2
    15    10    11    2
    16    10    15    1
    17    11    12    1
    18    12    13    2
    19    13    14    1
    20    14    15    2
    21    14    24    1
    22    16    17    1
    23    17    18    2
    24    18    19    1
    25    18    26    1
    26    19    20    2
    27    22    26    2
    28    23    26    2
    29    20    27    1
    30     1    28    1
    31    17    29    1
    32    15    30    1
    33    13    31    1
    34    12    32    1
    35     4    33    1
    36     4    34    1
    37     3    35    1
    38     3    36    1
    39    19    37    1
    40    11    38    1
    41    16    39    1
@<TRIPOS>SUBSTRUCTURE
     1 RES1        1 GROUP             0 ****  ****    0  
@<TRIPOS>MOLECULE
2C6K:A:DT21299
    48    51     1     0     0
SMALL
NO_CHARGES
****
Generated from the CSD

@<TRIPOS>ATOM
     1 O1      33.9048  11.2310  66.0802   O.2       1 RES1   0.0000
     2 S2      33.4808  10.9000  64.7922   S.o2      1 RES1   0.0000
     3 O3      34.5257  10.4030  64.0372   O.2       1 RES1   0.0000
     4 N4      32.7938  12.0990  64.1022   N.pl3     1 RES1   0.0000
     5 C5      32.2808   9.6140  64.9532   C.2       1 RES1   0.0000
     6 C6      31.9808   9.1110  66.2132   C.2       1 RES1   0.0000
     7 C7      31.0348   8.1010  66.3582   C.2       1 RES1   0.0000
     8 C8      30.3758   7.5950  65.2362   C.2       1 RES1   0.0000
     9 C9      30.6898   8.0870  63.9552   C.2       1 RES1   0.0000
    10 C10     31.6298   9.1070  63.8182   C.2       1 RES1   0.0000
    11 N11     29.4778   6.5930  65.3872   N.pl3     1 RES1   0.0000
    12 C12     28.3868   6.4720  64.5712   C.2       1 RES1   0.0000
    13 N13     27.7728   5.2830  64.4602   N.pl3     1 RES1   0.0000
    14 N14     28.0738   4.1320  65.0512   N.2       1 RES1   0.0000
    15 C15     27.1758   3.2170  64.6232   C.2       1 RES1   0.0000
    16 C16     26.6988   5.1250  63.7192   C.2       1 RES1   0.0000
    17 N17     26.3138   3.8550  63.7742   N.2       1 RES1   0.0000
    18 N18     26.1878   6.1360  62.9781   N.2       1 RES1   0.0000
    19 C19     26.7388   7.3680  63.0441   C.2       1 RES1   0.0000
    20 C20     27.8648   7.5740  63.8652   C.2       1 RES1   0.0000
    21 N21     26.1458   8.4040  62.3621   N.pl3     1 RES1   0.0000
    22 C22     26.8808   9.5950  61.9531   C.3       1 RES1   0.0000
    23 C23     26.8258  10.5260  63.1581   C.3       1 RES1   0.0000
    24 C24     27.3988  11.8880  62.7761   C.3       1 RES1   0.0000
    25 C25     26.5778  12.4860  61.6371   C.3       1 RES1   0.0000
    26 C26     26.6268  11.5530  60.4300   C.3       1 RES1   0.0000
    27 C27     26.0558  10.1910  60.8141   C.3       1 RES1   0.0000
    28 H1      27.6593  11.4347  60.1047   H         1 RES1   0.0000
    29 H2      26.0371  11.9779  59.6190   H         1 RES1   0.0000
    30 H3      25.0226  10.3088  61.1375   H         1 RES1   0.0000
    31 H4      26.0929   9.5259  59.9526   H         1 RES1   0.0000
    32 H5      28.4325  11.7694  62.4547   H         1 RES1   0.0000
    33 H6      27.3607  12.5522  63.6382   H         1 RES1   0.0000
    34 H7      27.4116  10.1012  63.9719   H         1 RES1   0.0000
    35 H8      25.7917  10.6443  63.4784   H         1 RES1   0.0000
    36 H9      27.9021   9.3683  61.6507   H         1 RES1   0.0000
    37 H10     25.1589   8.3373  62.1347   H         1 RES1   0.0000
    38 H11     28.3200   8.5595  63.9520   H         1 RES1   0.0000
    39 H12     30.8084   7.7051  67.3471   H         1 RES1   0.0000
    40 H13     32.4339  12.0032  63.1580   H         1 RES1   0.0000
    41 H14     32.7022  12.9827  64.5930   H         1 RES1   0.0000
    42 H15     27.1443   2.1650  64.9029   H         1 RES1   0.0000
    43 H16     32.4881   9.5089  67.0908   H         1 RES1   0.0000
    44 H17     26.9899  13.4561  61.3630   H         1 RES1   0.0000
    45 H18     25.5449  12.6084  61.9596   H         1 RES1   0.0000
    46 H19     29.6182   5.9123  66.1269   H         1 RES1   0.0000
    47 H20     31.8585   9.5096  62.8325   H         1 RES1   0.0000
    48 H21     30.2004   7.6725  63.0751   H         1 RES1   0.0000
@<TRIPOS>BOND
     1     1     2    2
     2     2     3    2
     3     2     4    1
     4     2     5    1
     5     5     6    2
     6     5    10    1
     7     6     7    1
     8     7     8    2
     9     8     9    1
    10     8    11    1
    11     9    10    2
    12    11    12    1
    13    12    13    1
    14    12    20    2
    15    13    14    1
    16    13    16    1
    17    14    15    2
    18    15    17    1
    19    16    17    2
    20    16    18    1
    21    18    19    2
    22    19    20    1
    23    19    21    1
    24    21    22    1
    25    22    23    1
    26    22    27    1
    27    23    24    1
    28    24    25    1
    29    25    26    1
    30    26    27    1
    31    26    28    1
    32    26    29    1
    33    27    30    1
    34    27    31    1
    35    24    32    1
    36    24    33    1
    37    23    34    1
    38    23    35    1
    39    22    36    1
    40    21    37    1
    41    20    38    1
    42     7    39    1
    43     4    40    1
    44     4    41    1
    45    15    42    1
    46     6    43    1
    47    25    44    1
    48    25    45    1
    49    11    46    1
    50    10    47    1
    51     9    48    1
@<TRIPOS>SUBSTRUCTURE
     1 RES1        1 GROUP             0 ****  ****    0  
@<TRIPOS>MOLECULE
6OQI:A:N14301
    61    65     1     0     0
SMALL
NO_CHARGES
****
Generated from the CSD

@<TRIPOS>ATOM
     1 C1      25.6426  10.1953  62.2409   C.3       1 RES1   0.0000
     2 C2      27.4056   3.5511  64.7428   C.2       1 RES1   0.0000
     3 C3      24.3776  10.1793  61.3859   C.3       1 RES1   0.0000
     4 C4      24.2866   8.8473  60.6379   C.3       1 RES1   0.0000
     5 C5      25.7626   7.4072  62.0889   C.2       1 RES1   0.0000
     6 C6      25.5806   6.2912  62.8748   C.2       1 RES1   0.0000
     7 C7      24.2116   5.9512  62.7808   C.2       1 RES1   0.0000
     8 C8      26.5956   5.5502  63.6878   C.2       1 RES1   0.0000
     9 C9      26.4406   4.1821  63.9758   C.2       1 RES1   0.0000
    10 C10     26.8086   9.6173  61.4459   C.3       1 RES1   0.0000
    11 C11     27.8356   7.4632  60.7379   C.3       1 RES1   0.0000
    12 C12     28.5807   5.5252  64.9168   C.2       1 RES1   0.0000
    13 C13     30.0487   7.5072  65.1908   C.2       1 RES1   0.0000
    14 C14     27.0546   8.1593  61.8519   C.3       1 RES1   0.0000
    15 C15     29.8937   8.0783  63.9298   C.2       1 RES1   0.0000
    16 C16     30.2367   9.4023  63.7328   C.2       1 RES1   0.0000
    17 C17     30.7517  10.1263  64.8058   C.2       1 RES1   0.0000
    18 C18     30.8907   9.4953  66.0347   C.2       1 RES1   0.0000
    19 C19     32.1637  11.9544  65.5247   C.3       1 RES1   0.0000
    20 C20     32.1817  13.4854  65.4497   C.3       1 RES1   0.0000
    21 C21     31.3327  13.3624  63.1488   C.3       1 RES1   0.0000
    22 C22     31.3737  11.8354  63.2398   C.3       1 RES1   0.0000
    23 C23     32.2907  15.4125  63.9878   C.3       1 RES1   0.0000
    24 F24     25.3846   3.4741  63.5208   F         1 RES1   0.0000
    25 N25     23.6185   6.8022  61.9919   N.2       1 RES1   0.0000
    26 N26     28.4436   4.2391  65.1908   N.2       1 RES1   0.0000
    27 N27     27.6676   6.1682  64.1938   N.2       1 RES1   0.0000
    28 N28     29.7097   6.1692  65.4297   N.pl3     1 RES1   0.0000
    29 N29     30.5477   8.2273  66.1847   N.2       1 RES1   0.0000
    30 N30     31.1027  11.4734  64.6338   N.3       1 RES1   0.0000
    31 N31     32.3347  13.9455  64.0568   N.3       1 RES1   0.0000
    32 N32     24.5666   7.7273  61.5459   N.pl3     1 RES1   0.0000
    33 H1      27.3106   2.4918  64.9767   H         1 RES1   0.0000
    34 H2      25.0133   8.8414  59.8268   H         1 RES1   0.0000
    35 H3      23.2841   8.7343  60.2279   H         1 RES1   0.0000
    36 H4      25.4822   9.5957  63.1357   H         1 RES1   0.0000
    37 H5      25.8728  11.2204  62.5273   H         1 RES1   0.0000
    38 H6      27.2403   7.4577  59.8260   H         1 RES1   0.0000
    39 H7      28.7678   7.9973  60.5597   H         1 RES1   0.0000
    40 H8      28.0552   6.4386  61.0342   H         1 RES1   0.0000
    41 H9      33.0146  13.8610  66.0422   H         1 RES1   0.0000
    42 H10     31.2466  13.8725  65.8517   H         1 RES1   0.0000
    43 H11     32.3565  11.4709  62.9446   H         1 RES1   0.0000
    44 H12     30.6156  11.4030  62.5885   H         1 RES1   0.0000
    45 H13     31.2864  10.0506  66.8838   H         1 RES1   0.0000
    46 H14     27.7051  10.2025  61.6452   H         1 RES1   0.0000
    47 H15     26.5758   9.6604  60.3829   H         1 RES1   0.0000
    48 H16     29.5044   7.4847  63.1039   H         1 RES1   0.0000
    49 H17     30.3315   5.6262  66.0203   H         1 RES1   0.0000
    50 H18     33.0992  15.8285  64.5871   H         1 RES1   0.0000
    51 H19     32.4052  15.7308  62.9527   H         1 RES1   0.0000
    52 H20     31.3350  15.7655  64.3725   H         1 RES1   0.0000
    53 H21     30.1070   9.8705  62.7582   H         1 RES1   0.0000
    54 H22     23.7309   5.1144  63.2855   H         1 RES1   0.0000
    55 H23     27.6477   8.1411  62.7650   H         1 RES1   0.0000
    56 H24     31.9619  11.6361  66.5464   H         1 RES1   0.0000
    57 H25     33.1253  11.5566  65.2038   H         1 RES1   0.0000
    58 H26     30.3415  13.7145  63.4308   H         1 RES1   0.0000
    59 H27     31.5497  13.6692  62.1267   H         1 RES1   0.0000
    60 H28     24.4139  10.9974  60.6680   H         1 RES1   0.0000
    61 H29     23.5047  10.2968  62.0263   H         1 RES1   0.0000
@<TRIPOS>BOND
     1     1     3    1
     2     1    10    1
     3     2     9    2
     4     2    26    1
     5     3     4    1
     6     4    32    1
     7     5     6    2
     8     5    14    1
     9     5    32    1
    10     6     7    1
    11     6     8    1
    12     7    25    2
    13     8     9    1
    14     8    27    2
    15     9    24    1
    16    10    14    1
    17    11    14    1
    18    12    26    2
    19    12    27    1
    20    12    28    1
    21    13    15    2
    22    13    28    1
    23    13    29    1
    24    15    16    1
    25    16    17    2
    26    17    18    1
    27    17    30    1
    28    18    29    2
    29    19    20    1
    30    19    30    1
    31    20    31    1
    32    21    22    1
    33    21    31    1
    34    22    30    1
    35    23    31    1
    36    25    32    1
    37     2    33    1
    38     4    34    1
    39     4    35    1
    40     1    36    1
    41     1    37    1
    42    11    38    1
    43    11    39    1
    44    11    40    1
    45    20    41    1
    46    20    42    1
    47    22    43    1
    48    22    44    1
    49    18    45    1
    50    10    46    1
    51    10    47    1
    52    15    48    1
    53    28    49    1
    54    23    50    1
    55    23    51    1
    56    23    52    1
    57    16    53    1
    58     7    54    1
    59    14    55    1
    60    19    56    1
    61    19    57    1
    62    21    58    1
    63    21    59    1
    64     3    60    1
    65     3    61    1
@<TRIPOS>SUBSTRUCTURE
     1 RES1        1 GROUP             0 ****  ****    0  
@<TRIPOS>MOLECULE
3RZB:A:02Z458
    26    27     1     0     0
SMALL
NO_CHARGES
****
Generated from the CSD

@<TRIPOS>ATOM
     1 C1      25.7987   5.0930  63.0432   C.2       1 RES1   0.0000
     2 N2      28.4966   4.1760  65.4912   N.2       1 RES1   0.0000
     3 S3      27.9517   6.3820  64.2922   S.3       1 RES1   0.0000
     4 N4      26.8147   2.7360  64.6822   N.pl3     1 RES1   0.0000
     5 N5      29.9976   5.9110  66.0863   N.pl3     1 RES1   0.0000
     6 C6      26.9657   5.0380  63.9852   C.2       1 RES1   0.0000
     7 C7      27.3967   3.9360  64.7152   C.2       1 RES1   0.0000
     8 C8      28.9076   5.4400  65.3652   C.2       1 RES1   0.0000
     9 C9      30.7566   7.0460  65.9143   C.2       1 RES1   0.0000
    10 C10     30.5726   8.0899  64.8012   C.2       1 RES1   0.0000
    11 C11     31.4046   9.2459  64.7192   C.2       1 RES1   0.0000
    12 C12     32.4636   9.4419  65.7373   C.2       1 RES1   0.0000
    13 C13     32.6616   8.4479  66.8243   C.2       1 RES1   0.0000
    14 C14     31.8266   7.2709  66.9113   C.2       1 RES1   0.0000
    15 O15     25.0877   4.0980  62.8382   O.2       1 RES1   0.0000
    16 N16     25.5797   6.2680  62.4352   N.am      1 RES1   0.0000
    17 H1      25.9990   2.5835  64.0977   H         1 RES1   0.0000
    18 H2      27.1876   1.9755  65.2415   H         1 RES1   0.0000
    19 H3      30.2794   5.3239  66.8648   H         1 RES1   0.0000
    20 H4      29.7896   7.9438  64.0586   H         1 RES1   0.0000
    21 H5      31.2637   9.9730  63.9209   H         1 RES1   0.0000
    22 H6      33.1026  10.3224  65.6885   H         1 RES1   0.0000
    23 H7      33.4448   8.6080  67.5639   H         1 RES1   0.0000
    24 H8      31.9852   6.5492  67.7113   H         1 RES1   0.0000
    25 H9      24.8052   6.3673  61.7868   H         1 RES1   0.0000
    26 H10     26.1885   7.0581  62.6234   H         1 RES1   0.0000
@<TRIPOS>BOND
     1     1     6    1
     2     1    15    2
     3     1    16   am
     4     2     7    1
     5     2     8    2
     6     3     6    1
     7     3     8    1
     8     4     7    1
     9     5     8    1
    10     5     9    1
    11     6     7    2
    12     9    10    2
    13     9    14    1
    14    10    11    1
    15    11    12    2
    16    12    13    1
    17    13    14    2
    18     4    17    1
    19     4    18    1
    20     5    19    1
    21    10    20    1
    22    11    21    1
    23    12    22    1
    24    13    23    1
    25    14    24    1
    26    16    25    1
    27    16    26    1
@<TRIPOS>SUBSTRUCTURE
     1 RES1        1 GROUP             0 ****  ****    0  
@<TRIPOS>MOLECULE
4KD1:A:1QK302
    61    64     1     0     0
SMALL
NO_CHARGES
****
Generated from the CSD

@<TRIPOS>ATOM
     1 C1      29.3183   7.9999  63.8043   C.2       1 RES1   0.0000
     2 N2      30.8493   6.5659  65.2413   N.pl3     1 RES1   0.0000
     3 C3      31.9722   7.3889  64.9533   C.3       1 RES1   0.0000
     4 C4      31.7362   8.2139  67.3492   C.2       1 RES1   0.0000
     5 C5      31.8372  10.6709  67.9082   C.3       1 RES1   0.0000
     6 C6      28.6923  10.1329  61.8723   C.3       1 RES1   0.0000
     7 C7      26.9224  11.8799  61.7703   C.3       1 RES1   0.0000
     8 C8      26.2914   9.6369  61.9653   C.3       1 RES1   0.0000
     9 C9      26.2534   7.6069  60.2983   C.3       1 RES1   0.0000
    10 C10     25.1414   3.6460  62.7283   C.3       1 RES1   0.0000
    11 C11     25.1474   4.5380  63.9743   C.3       1 RES1   0.0000
    12 C12     26.5764   4.8400  64.4583   C.2       1 RES1   0.0000
    13 C13     27.3644   4.0180  65.2403   C.2       1 RES1   0.0000
    14 N14     28.5883   4.6320  65.4243   N.2       1 RES1   0.0000
    15 N15     28.5473   5.8389  64.7343   N.pl3     1 RES1   0.0000
    16 C16     27.3334   5.9539  64.1233   C.2       1 RES1   0.0000
    17 N17     26.9964   7.1459  63.3413   N.2       1 RES1   0.0000
    18 C18     28.0193   8.1129  63.1793   C.2       1 RES1   0.0000
    19 C19     29.5903   6.8489  64.5813   C.2       1 RES1   0.0000
    20 C20     31.9572   8.5439  65.9343   C.2       1 RES1   0.0000
    21 C21     31.6752   9.2829  68.3482   C.3       1 RES1   0.0000
    22 N22     32.0562  10.9909  66.4753   N.3       1 RES1   0.0000
    23 C23     32.1082   9.9229  65.4653   C.3       1 RES1   0.0000
    24 O24     32.1822  12.1689  66.1243   O.3       1 RES1   0.0000
    25 N25     27.6543   9.2509  62.3973   N.pl3     1 RES1   0.0000
    26 C26     28.3203  11.5719  62.0883   C.3       1 RES1   0.0000
    27 C27     26.0184  10.9949  62.5033   C.3       1 RES1   0.0000
    28 C28     25.9924   9.0619  60.6053   C.3       1 RES1   0.0000
    29 O29     25.5224   6.7219  61.1363   O.3       1 RES1   0.0000
    30 H1      31.9043   7.7664  63.9341   H         1 RES1   0.0000
    31 H2      32.8914   6.8163  65.0678   H         1 RES1   0.0000
    32 H3      27.0707   3.0500  65.6435   H         1 RES1   0.0000
    33 H4      30.0678   8.7802  63.6803   H         1 RES1   0.0000
    34 H5      31.3115  10.1129  64.7477   H         1 RES1   0.0000
    35 H6      33.0725   9.9938  64.9643   H         1 RES1   0.0000
    36 H7      24.5496   6.8844  61.0207   H         1 RES1   0.0000
    37 H8      30.9278   5.7948  65.8966   H         1 RES1   0.0000
    38 H9      32.4596   9.0847  69.0772   H         1 RES1   0.0000
    39 H10     30.7027   9.2124  68.8332   H         1 RES1   0.0000
    40 H11     24.9811  11.2754  62.3266   H         1 RES1   0.0000
    41 H12     26.2278  11.0329  63.5713   H         1 RES1   0.0000
    42 H13     28.9590  12.1892  61.4582   H         1 RES1   0.0000
    43 H14     28.4958  11.8178  63.1345   H         1 RES1   0.0000
    44 H15     31.6179   7.1753  67.6545   H         1 RES1   0.0000
    45 H16     25.6711   9.0153  62.6093   H         1 RES1   0.0000
    46 H17     28.8117   9.9501  60.8054   H         1 RES1   0.0000
    47 H18     29.6311   9.9251  62.3835   H         1 RES1   0.0000
    48 H19     32.6924  11.0714  68.4506   H         1 RES1   0.0000
    49 H20     30.9350  11.2005  68.2108   H         1 RES1   0.0000
    50 H21     27.3164   7.4100  60.4294   H         1 RES1   0.0000
    51 H22     25.9736   7.4151  59.2635   H         1 RES1   0.0000
    52 H23     24.6053   4.0320  64.7719   H         1 RES1   0.0000
    53 H24     24.6504   5.4774  63.7369   H         1 RES1   0.0000
    54 H25     26.5780   9.6383  59.8906   H         1 RES1   0.0000
    55 H26     24.9317   9.2302  60.4251   H         1 RES1   0.0000
    56 H27     26.7618  11.7490  60.7012   H         1 RES1   0.0000
    57 H28     26.7125  12.9125  62.0451   H         1 RES1   0.0000
    58 H29     25.6306   2.7002  62.9566   H         1 RES1   0.0000
    59 H30     24.1136   3.4582  62.4213   H         1 RES1   0.0000
    60 H31     25.6757   4.1457  61.9216   H         1 RES1   0.0000
    61 H32     32.9651  12.5697  66.5852   H         1 RES1   0.0000
@<TRIPOS>BOND
     1     1    18    1
     2     1    19    2
     3     2     3    1
     4     2    19    1
     5     3    20    1
     6     4    20    2
     7     4    21    1
     8     5    21    1
     9     5    22    1
    10     6    25    1
    11     6    26    1
    12     7    26    1
    13     7    27    1
    14     8    25    1
    15     8    27    1
    16     8    28    1
    17     9    28    1
    18     9    29    1
    19    10    11    1
    20    11    12    1
    21    12    13    1
    22    12    16    2
    23    13    14    2
    24    14    15    1
    25    15    16    1
    26    15    19    1
    27    16    17    1
    28    17    18    2
    29    18    25    1
    30    20    23    1
    31    22    23    1
    32    22    24    1
    33     3    30    1
    34     3    31    1
    35    13    32    1
    36     1    33    1
    37    23    34    1
    38    23    35    1
    39    29    36    1
    40     2    37    1
    41    21    38    1
    42    21    39    1
    43    27    40    1
    44    27    41    1
    45    26    42    1
    46    26    43    1
    47     4    44    1
    48     8    45    1
    49     6    46    1
    50     6    47    1
    51     5    48    1
    52     5    49    1
    53     9    50    1
    54     9    51    1
    55    11    52    1
    56    11    53    1
    57    28    54    1
    58    28    55    1
    59     7    56    1
    60     7    57    1
    61    10    58    1
    62    10    59    1
    63    10    60    1
    64    24    61    1
@<TRIPOS>SUBSTRUCTURE
     1 RES1        1 GROUP             0 ****  ****    0  
@<TRIPOS>MOLECULE
1P2A:A:5BN301
    38    41     1     0     0
SMALL
NO_CHARGES
****
Generated from the CSD

@<TRIPOS>ATOM
     1 N1      25.8109   9.5577  58.7120   N.3       1 RES1   0.0000
     2 C2      25.5299  10.4777  59.8200   C.3       1 RES1   0.0000
     3 C3      25.8469   9.8497  61.2070   C.3       1 RES1   0.0000
     4 N4      25.4369   8.4157  61.4020   N.pl3     1 RES1   0.0000
     5 C5      26.0459   7.4338  62.2841   C.2       1 RES1   0.0000
     6 C6      27.2919   7.8118  62.9001   C.2       1 RES1   0.0000
     7 C7      28.0909   6.9648  63.8301   C.2       1 RES1   0.0000
     8 C8      29.3369   7.4868  64.3581   C.2       1 RES1   0.0000
     9 C9      29.9379   8.7577  64.1051   C.2       1 RES1   0.0000
    10 C10     31.1459   8.8397  64.8181   C.2       1 RES1   0.0000
    11 C11     31.2909   7.6508  65.4971   C.2       1 RES1   0.0000
    12 N12     30.1929   6.8688  65.1991   N.pl3     1 RES1   0.0000
    13 C13     27.4929   5.6568  64.0911   C.2       1 RES1   0.0000
    14 C14     27.9189   4.4859  64.9501   C.2       1 RES1   0.0000
    15 O15     28.9039   4.3719  65.6521   O.2       1 RES1   0.0000
    16 N16     26.9289   3.4869  64.7891   N.am      1 RES1   0.0000
    17 C17     25.9519   3.9759  63.9041   C.2       1 RES1   0.0000
    18 C18     24.7799   3.4049  63.4061   C.2       1 RES1   0.0000
    19 C19     23.9639   4.1609  62.5011   C.2       1 RES1   0.0000
    20 C20     24.2859   5.4728  62.0801   C.2       1 RES1   0.0000
    21 F21     23.4469   6.0918  61.2280   F         1 RES1   0.0000
    22 C22     25.5069   6.1048  62.5771   C.2       1 RES1   0.0000
    23 C23     26.2959   5.3058  63.4841   C.2       1 RES1   0.0000
    24 H1      26.9250   2.5753  65.2354   H         1 RES1   0.0000
    25 H2      30.0461   5.9355  65.5701   H         1 RES1   0.0000
    26 H3      24.4887   2.3979  63.7011   H         1 RES1   0.0000
    27 H4      29.5268   9.5362  63.4641   H         1 RES1   0.0000
    28 H5      32.1192   7.3776  66.1492   H         1 RES1   0.0000
    29 H6      25.2444   8.7218  58.8144   H         1 RES1   0.0000
    30 H7      25.5891  10.0110  57.8313   H         1 RES1   0.0000
    31 H8      25.3390  10.4453  61.9641   H         1 RES1   0.0000
    32 H9      26.9235   9.9101  61.3596   H         1 RES1   0.0000
    33 H10     31.8355   9.6824  64.8311   H         1 RES1   0.0000
    34 H11     23.0524   3.7032  62.1195   H         1 RES1   0.0000
    35 H12     24.4754  10.7480  59.7913   H         1 RES1   0.0000
    36 H13     26.1376  11.3726  59.6942   H         1 RES1   0.0000
    37 H14     27.6833   8.8007  62.6663   H         1 RES1   0.0000
    38 H15     24.6437   8.0970  60.8547   H         1 RES1   0.0000
@<TRIPOS>BOND
     1     1     2    1
     2     2     3    1
     3     3     4    1
     4     4     5    1
     5     5     6    2
     6     5    22    1
     7     6     7    1
     8     7     8    1
     9     7    13    2
    10     8     9    2
    11     8    12    1
    12     9    10    1
    13    10    11    2
    14    11    12    1
    15    13    14    1
    16    13    23    1
    17    14    15    2
    18    14    16   am
    19    16    17    1
    20    17    18    1
    21    17    23    2
    22    18    19    2
    23    19    20    1
    24    20    21    1
    25    20    22    2
    26    22    23    1
    27    16    24    1
    28    12    25    1
    29    18    26    1
    30     9    27    1
    31    11    28    1
    32     1    29    1
    33     1    30    1
    34     3    31    1
    35     3    32    1
    36    10    33    1
    37    19    34    1
    38     2    35    1
    39     2    36    1
    40     6    37    1
    41     4    38    1
@<TRIPOS>SUBSTRUCTURE
     1 RES1        1 GROUP             0 ****  ****    0  
@<TRIPOS>MOLECULE
3QTR:A:X36497
    34    36     1     0     0
SMALL
NO_CHARGES
****
Generated from the CSD

@<TRIPOS>ATOM
     1 N1      28.5454   4.2161  65.3980   N.2       1 RES1   0.0000
     2 C2      27.4524   3.9091  64.6630   C.2       1 RES1   0.0000
     3 N3      26.9414   2.6730  64.7050   N.pl3     1 RES1   0.0000
     4 C4      26.9554   4.9671  63.8870   C.2       1 RES1   0.0000
     5 C5      25.8374   4.9421  63.0130   C.2       1 RES1   0.0000
     6 C6      25.3694   6.1161  62.1730   C.2       1 RES1   0.0000
     7 C7      26.3154   6.9401  61.3760   C.2       1 RES1   0.0000
     8 C8      25.8364   8.0311  60.6060   C.2       1 RES1   0.0000
     9 C9      24.4644   8.3821  60.5590   C.2       1 RES1   0.0000
    10 C10     23.4933   7.6091  61.3150   C.2       1 RES1   0.0000
    11 C11     23.9413   6.4831  62.1160   C.2       1 RES1   0.0000
    12 O12     25.1194   3.8041  62.8800   O.3       1 RES1   0.0000
    13 S13     27.9324   6.3481  64.1410   S.3       1 RES1   0.0000
    14 C14     28.9224   5.4781  65.2200   C.2       1 RES1   0.0000
    15 N15     30.0294   5.9501  65.8860   N.2       1 RES1   0.0000
    16 C16     30.6574   7.1781  65.8540   C.2       1 RES1   0.0000
    17 C17     31.8175   7.3551  66.7421   C.2       1 RES1   0.0000
    18 C18     32.5335   8.6081  66.7721   C.2       1 RES1   0.0000
    19 C19     32.1255   9.7182  65.9200   C.2       1 RES1   0.0000
    20 C20     30.9855   9.5922  65.0200   C.2       1 RES1   0.0000
    21 C21     30.2564   8.3431  64.9810   C.2       1 RES1   0.0000
    22 H1      32.6800  10.6548  65.9562   H         1 RES1   0.0000
    23 H2      23.2140   5.9025  62.6816   H         1 RES1   0.0000
    24 H3      24.1383   9.2294  59.9576   H         1 RES1   0.0000
    25 H4      22.4371   7.8722  61.2812   H         1 RES1   0.0000
    26 H5      24.7449   3.5440  63.7621   H         1 RES1   0.0000
    27 H6      32.1383   6.5342  67.3817   H         1 RES1   0.0000
    28 H7      29.4041   8.2414  64.3108   H         1 RES1   0.0000
    29 H8      26.1211   2.4439  64.1529   H         1 RES1   0.0000
    30 H9      27.3741   1.9645  65.2890   H         1 RES1   0.0000
    31 H10     30.6871  10.4261  64.3863   H         1 RES1   0.0000
    32 H11     27.3789   6.7058  61.3831   H         1 RES1   0.0000
    33 H12     26.5489   8.6201  60.0303   H         1 RES1   0.0000
    34 H13     33.3871   8.7253  67.4381   H         1 RES1   0.0000
@<TRIPOS>BOND
     1     1     2    2
     2     1    14    1
     3     2     3    1
     4     2     4    1
     5     4     5    2
     6     4    13    1
     7     5     6    1
     8     5    12    1
     9     6     7    2
    10     6    11    1
    11     7     8    1
    12     8     9    2
    13     9    10    1
    14    10    11    2
    15    13    14    1
    16    14    15    2
    17    15    16    1
    18    16    17    2
    19    16    21    1
    20    17    18    1
    21    18    19    2
    22    19    20    1
    23    20    21    2
    24    19    22    1
    25    11    23    1
    26     9    24    1
    27    10    25    1
    28    12    26    1
    29    17    27    1
    30    21    28    1
    31     3    29    1
    32     3    30    1
    33    20    31    1
    34     7    32    1
    35     8    33    1
    36    18    34    1
@<TRIPOS>SUBSTRUCTURE
     1 RES1        1 GROUP             0 ****  ****    0  
@<TRIPOS>MOLECULE
3QTQ:A:X35476
    32    33     1     0     0
SMALL
NO_CHARGES
****
Generated from the CSD

@<TRIPOS>ATOM
     1 N1      28.2816   4.4321  65.4268   N.2       1 RES1   0.0000
     2 C2      27.2696   4.0761  64.6008   C.2       1 RES1   0.0000
     3 N3      26.8506   2.8041  64.5528   N.pl3     1 RES1   0.0000
     4 C4      26.7476   5.1272  63.8348   C.2       1 RES1   0.0000
     5 C5      25.7176   5.0172  62.8979   C.2       1 RES1   0.0000
     6 C6      25.1905   6.1522  62.0609   C.2       1 RES1   0.0000
     7 C7      23.7945   6.3892  61.9169   C.2       1 RES1   0.0000
     8 N8      23.3575   7.4452  61.1279   N.2       1 RES1   0.0000
     9 C9      24.2305   8.2963  60.4619   C.2       1 RES1   0.0000
    10 C10     25.6236   8.1003  60.5679   C.2       1 RES1   0.0000
    11 C11     26.0966   7.0202  61.3719   C.2       1 RES1   0.0000
    12 O12     25.1285   3.8221  62.6799   O.3       1 RES1   0.0000
    13 S13     27.5746   6.6032  64.2108   S.3       1 RES1   0.0000
    14 C14     28.5556   5.7382  65.3288   C.2       1 RES1   0.0000
    15 N15     29.5416   6.2982  66.0707   N.2       1 RES1   0.0000
    16 C16     29.8587   7.7152  65.9307   C.3       1 RES1   0.0000
    17 C17     31.2177   7.8942  65.3218   C.3       1 RES1   0.0000
    18 C18     31.4187   7.9202  63.8748   C.3       1 RES1   0.0000
    19 H1      26.0915   2.5429  63.9317   H         1 RES1   0.0000
    20 H2      27.2923   2.1019  65.1376   H         1 RES1   0.0000
    21 H3      26.3206   8.7568  60.0492   H         1 RES1   0.0000
    22 H4      30.8484   8.7417  63.4438   H         1 RES1   0.0000
    23 H5      32.4767   8.0596  63.6577   H         1 RES1   0.0000
    24 H6      31.0809   6.9786  63.4444   H         1 RES1   0.0000
    25 H7      31.8317   7.0784  65.7006   H         1 RES1   0.0000
    26 H8      31.5992   8.8415  65.7000   H         1 RES1   0.0000
    27 H9      29.8421   8.1845  66.9133   H         1 RES1   0.0000
    28 H10     29.1147   8.1869  65.2905   H         1 RES1   0.0000
    29 H11     24.7209   3.4951  63.5243   H         1 RES1   0.0000
    30 H12     27.1688   6.8529  61.4631   H         1 RES1   0.0000
    31 H13     23.8397   9.1142  59.8584   H         1 RES1   0.0000
    32 H14     23.0743   5.7471  62.4218   H         1 RES1   0.0000
@<TRIPOS>BOND
     1     1     2    2
     2     1    14    1
     3     2     3    1
     4     2     4    1
     5     4     5    2
     6     4    13    1
     7     5     6    1
     8     5    12    1
     9     6     7    2
    10     6    11    1
    11     7     8    1
    12     8     9    2
    13     9    10    1
    14    10    11    2
    15    13    14    1
    16    14    15    2
    17    15    16    1
    18    16    17    1
    19    17    18    1
    20     3    19    1
    21     3    20    1
    22    10    21    1
    23    18    22    1
    24    18    23    1
    25    18    24    1
    26    17    25    1
    27    17    26    1
    28    16    27    1
    29    16    28    1
    30    12    29    1
    31    11    30    1
    32     9    31    1
    33     7    32    1
@<TRIPOS>SUBSTRUCTURE
     1 RES1        1 GROUP             0 ****  ****    0  
@<TRIPOS>MOLECULE
1E9H:A:INR1298
    34    37     1     0     0
SMALL
NO_CHARGES
****
Generated from the CSD

@<TRIPOS>ATOM
     1 C1      30.1931   7.8454  65.1756   C.2       1 RES1   0.0000
     2 C2      29.7771   8.6784  64.1227   C.2       1 RES1   0.0000
     3 C3      31.3001   8.1914  65.9966   C.2       1 RES1   0.0000
     4 N4      29.4151   6.7593  65.2596   N.pl3     1 RES1   0.0000
     5 C5      30.4381   9.9005  63.8177   C.2       1 RES1   0.0000
     6 C6      28.6051   7.9384  63.5487   C.2       1 RES1   0.0000
     7 C7      31.5531  10.2625  64.6306   C.2       1 RES1   0.0000
     8 C8      31.9811   9.4165  65.7096   C.2       1 RES1   0.0000
     9 O9      27.9491   8.3204  62.6018   O.2       1 RES1   0.0000
    10 C10     28.4651   6.7033  64.3477   C.2       1 RES1   0.0000
    11 C11     27.5961   5.6523  64.2997   C.2       1 RES1   0.0000
    12 C12     27.6321   4.4892  65.2156   C.2       1 RES1   0.0000
    13 C13     26.4341   5.3133  63.3667   C.2       1 RES1   0.0000
    14 O14     28.4381   4.3592  66.1366   O.2       1 RES1   0.0000
    15 N15     26.6911   3.6532  64.8946   N.am      1 RES1   0.0000
    16 C16     25.9801   4.0692  63.8437   C.2       1 RES1   0.0000
    17 C17     25.7931   5.9193  62.2478   C.2       1 RES1   0.0000
    18 C18     24.6961   5.2343  61.6298   C.2       1 RES1   0.0000
    19 C19     24.2551   3.9762  62.1228   C.2       1 RES1   0.0000
    20 S20     23.9271   6.0153  60.2349   S.o2      1 RES1   0.0000
    21 C21     24.8951   3.3822  63.2437   C.2       1 RES1   0.0000
    22 O22     22.8711   5.0623  59.8089   O.3       1 RES1   0.0000
    23 O23     24.9021   6.1543  59.1769   O.2       1 RES1   0.0000
    24 O24     23.2541   7.1954  60.7378   O.2       1 RES1   0.0000
    25 H1      22.2304   4.9232  60.5547   H         1 RES1   0.0000
    26 H2      24.5600   2.4218  63.6326   H         1 RES1   0.0000
    27 H3      30.1063  10.5343  62.9966   H         1 RES1   0.0000
    28 H4      29.5455   6.0409  65.9647   H         1 RES1   0.0000
    29 H5      26.1298   6.8835  61.8697   H         1 RES1   0.0000
    30 H6      23.4235   3.4656  61.6395   H         1 RES1   0.0000
    31 H7      31.6187   7.5472  66.8148   H         1 RES1   0.0000
    32 H8      32.0859  11.1910  64.4308   H         1 RES1   0.0000
    33 H9      26.5162   2.7828  65.3866   H         1 RES1   0.0000
    34 H10     32.8353   9.7115  66.3173   H         1 RES1   0.0000
@<TRIPOS>BOND
     1     1     2    1
     2     1     3    2
     3     1     4    1
     4     2     5    2
     5     2     6    1
     6     3     8    1
     7     4    10    1
     8     5     7    1
     9     6     9    2
    10     6    10    1
    11     7     8    2
    12    10    11    2
    13    11    12    1
    14    11    13    1
    15    12    14    2
    16    12    15   am
    17    13    16    2
    18    13    17    1
    19    15    16    1
    20    16    21    1
    21    17    18    2
    22    18    19    1
    23    18    20    1
    24    19    21    2
    25    20    22    1
    26    20    23    2
    27    20    24    2
    28    22    25    1
    29    21    26    1
    30     5    27    1
    31     4    28    1
    32    17    29    1
    33    19    30    1
    34     3    31    1
    35     7    32    1
    36    15    33    1
    37     8    34    1
@<TRIPOS>SUBSTRUCTURE
     1 RES1        1 GROUP             0 ****  ****    0  
@<TRIPOS>MOLECULE
3R7I:A:X9I505
    36    37     1     0     0
SMALL
USER_CHARGES
****
Generated from the CSD

@<TRIPOS>ATOM
     1 C1      25.7310   7.2511  63.3856   C.2       1 RES1   0.0000
     2 N2      24.4370   7.5261  62.9526   N.pl3     1 RES1   1.0000
     3 O3      24.1430   8.6832  62.3456   O.3       1 RES1  -1.0000
     4 C4      26.0270   6.0081  64.0296   C.2       1 RES1   0.0000
     5 N5      26.8150   3.2921  64.7306   N.am      1 RES1   0.0000
     6 O6      23.4480   6.6391  63.1316   O.2       1 RES1   0.0000
     7 C7      27.3470   5.6961  64.4786   C.2       1 RES1   0.0000
     8 N8      29.6700   6.3371  64.7066   N.pl3     1 RES1   0.0000
     9 O9      28.4870   4.2311  66.0526   O.2       1 RES1   0.0000
    10 C10     28.4390   6.6481  64.2876   C.2       1 RES1   0.0000
    11 C11     28.1060   7.9132  63.6296   C.2       1 RES1   0.0000
    12 C12     26.7840   8.1942  63.1956   C.2       1 RES1   0.0000
    13 C13     27.5430   4.3681  65.1166   C.2       1 RES1   0.0000
    14 C14     30.8970   7.1211  64.5446   C.3       1 RES1   0.0000
    15 C15     31.0590   8.2572  65.5116   C.2       1 RES1   0.0000
    16 C16     31.2240   9.5762  65.0096   C.2       1 RES1   0.0000
    17 C17     31.3900  10.6652  65.8996   C.2       1 RES1   0.0000
    18 C18     31.3980  10.4622  67.3207   C.2       1 RES1   0.0000
    19 C19     31.2280   9.1162  67.8247   C.2       1 RES1   0.0000
    20 C20     31.0610   8.0282  66.9237   C.2       1 RES1   0.0000
    21 C21     31.5820  11.6392  68.1847   C.2       1 RES1   0.0000
    22 O22     31.7220  12.7762  67.6617   O.3       1 RES1   0.0000
    23 O23     31.5920  11.4592  69.4197   O.2       1 RES1   0.0000
    24 H1      31.2228   9.7506  63.9347   H         1 RES1   0.0000
    25 H2      31.5133  11.6708  65.5003   H         1 RES1   0.0000
    26 H3      31.2279   8.9355  68.8986   H         1 RES1   0.0000
    27 H4      30.9343   7.0179  67.3100   H         1 RES1   0.0000
    28 H5      29.7659   5.4525  65.1951   H         1 RES1   0.0000
    29 H6      30.9037   7.5327  63.5364   H         1 RES1   0.0000
    30 H7      31.7453   6.4494  64.6681   H         1 RES1   0.0000
    31 H8      26.5703   9.1451  62.7098   H         1 RES1   0.0000
    32 H9      28.8885   8.6535  63.4700   H         1 RES1   0.0000
    33 H10     25.2282   5.2836  64.1809   H         1 RES1   0.0000
    34 H11     26.9624   2.3928  65.1776   H         1 RES1   0.0000
    35 H12     26.1224   3.3855  63.9945   H         1 RES1   0.0000
    36 H13     30.9179  12.9931  67.1209   H         1 RES1   0.0000
@<TRIPOS>BOND
     1     1     2    1
     2     1     4    2
     3     1    12    1
     4     2     3    1
     5     2     6    2
     6     4     7    1
     7     5    13   am
     8     7    10    2
     9     7    13    1
    10     8    10    1
    11     8    14    1
    12     9    13    2
    13    10    11    1
    14    11    12    2
    15    14    15    1
    16    15    16    2
    17    15    20    1
    18    16    17    1
    19    17    18    2
    20    18    19    1
    21    18    21    1
    22    19    20    2
    23    21    22    1
    24    21    23    2
    25    16    24    1
    26    17    25    1
    27    19    26    1
    28    20    27    1
    29     8    28    1
    30    14    29    1
    31    14    30    1
    32    12    31    1
    33    11    32    1
    34     4    33    1
    35     5    34    1
    36     5    35    1
    37    22    36    1
@<TRIPOS>SUBSTRUCTURE
     1 RES1        1 GROUP             0 ****  ****    0  
@<TRIPOS>MOLECULE
3R83:A:Z14589
    50    52     1     0     0
SMALL
USER_CHARGES
****
Generated from the CSD

@<TRIPOS>ATOM
     1 N1      29.9752   6.3929  64.8043   N.pl3     1 RES1   0.0000
     2 N2      26.8822   3.6500  64.6053   N.am      1 RES1   0.0000
     3 N3      31.9462  10.6439  65.7223   N.2       1 RES1   0.0000
     4 N4      31.4972   9.2659  67.6653   N.2       1 RES1   0.0000
     5 N5      27.4272   9.6829  62.4633   N.pl3     1 RES1   0.0000
     6 N6      26.9482  13.3589  60.3253   N.3       1 RES1   0.0000
     7 N7      31.9242  11.4749  67.8163   N.pl3     1 RES1   0.0000
     8 N8      25.1142   7.8399  62.5963   N.pl3     1 RES1   1.0000
     9 C9      26.4432   6.3169  63.7713   C.2       1 RES1   0.0000
    10 C10     27.6802   5.9009  64.3583   C.2       1 RES1   0.0000
    11 C11     28.8252   6.7679  64.2723   C.2       1 RES1   0.0000
    12 C12     28.6782   8.0409  63.6113   C.2       1 RES1   0.0000
    13 C13     27.4442   8.4769  63.0253   C.2       1 RES1   0.0000
    14 C14     26.2842   7.5739  63.0993   C.2       1 RES1   0.0000
    15 C15     27.7322   4.6580  64.9953   C.2       1 RES1   0.0000
    16 C16     31.3082   7.0489  64.5373   C.3       1 RES1   0.0000
    17 C17     31.4882   8.2539  65.4423   C.2       1 RES1   0.0000
    18 C18     31.7892   9.5269  64.9383   C.2       1 RES1   0.0000
    19 C19     31.7892  10.4569  67.0643   C.2       1 RES1   0.0000
    20 C20     31.3532   8.1839  66.8323   C.2       1 RES1   0.0000
    21 C21     26.3982  10.6819  62.9453   C.3       1 RES1   0.0000
    22 C22     26.0462  11.7559  61.9053   C.3       1 RES1   0.0000
    23 C23     28.5222  10.1169  61.5313   C.3       1 RES1   0.0000
    24 C24     28.1112  11.2419  60.5703   C.3       1 RES1   0.0000
    25 C25     27.3172  12.3359  61.2903   C.3       1 RES1   0.0000
    26 O26     28.5102   4.4410  65.9173   O.2       1 RES1   0.0000
    27 O27     24.9732   8.5999  61.5443   O.3       1 RES1  -1.0000
    28 O28     24.0332   7.2739  63.0923   O.2       1 RES1   0.0000
    29 H1      29.5428   8.7006  63.5546   H         1 RES1   0.0000
    30 H2      29.9611   5.6030  65.4415   H         1 RES1   0.0000
    31 H3      31.1211   7.2181  67.2787   H         1 RES1   0.0000
    32 H4      27.9322  12.7777  62.0729   H         1 RES1   0.0000
    33 H5      28.8304   9.2561  60.9398   H         1 RES1   0.0000
    34 H6      29.3628  10.4664  62.1289   H         1 RES1   0.0000
    35 H7      26.9197   2.7472  65.0677   H         1 RES1   0.0000
    36 H8      26.2173   3.8087  63.8550   H         1 RES1   0.0000
    37 H9      27.4947  10.8216  59.7771   H         1 RES1   0.0000
    38 H10     29.0082  11.6827  60.1379   H         1 RES1   0.0000
    39 H11     25.4849  12.5539  62.3891   H         1 RES1   0.0000
    40 H12     25.4385  11.3094  61.1196   H         1 RES1   0.0000
    41 H13     26.4272  14.0935  60.7935   H         1 RES1   0.0000
    42 H14     27.7874  13.7511  59.9104   H         1 RES1   0.0000
    43 H15     26.7894  11.1776  63.8325   H         1 RES1   0.0000
    44 H16     25.4885  10.1414  63.2028   H         1 RES1   0.0000
    45 H17     31.8159  11.3815  68.8212   H         1 RES1   0.0000
    46 H18     32.1402  12.3801  67.4111   H         1 RES1   0.0000
    47 H19     25.5850   5.6498  63.8378   H         1 RES1   0.0000
    48 H20     31.3495   7.3702  63.4976   H         1 RES1   0.0000
    49 H21     32.1064   6.3330  64.7280   H         1 RES1   0.0000
    50 H22     31.9055   9.6368  63.8611   H         1 RES1   0.0000
@<TRIPOS>BOND
     1     1    11    1
     2     1    16    1
     3     2    15   am
     4     3    18    2
     5     3    19    1
     6     4    19    2
     7     4    20    1
     8     5    13    1
     9     5    21    1
    10     5    23    1
    11     6    25    1
    12     7    19    1
    13     8    14    1
    14     8    27    1
    15     8    28    2
    16     9    10    2
    17     9    14    1
    18    10    11    1
    19    10    15    1
    20    11    12    2
    21    12    13    1
    22    13    14    2
    23    15    26    2
    24    16    17    1
    25    17    18    1
    26    17    20    2
    27    21    22    1
    28    22    25    1
    29    23    24    1
    30    24    25    1
    31    12    29    1
    32     1    30    1
    33    20    31    1
    34    25    32    1
    35    23    33    1
    36    23    34    1
    37     2    35    1
    38     2    36    1
    39    24    37    1
    40    24    38    1
    41    22    39    1
    42    22    40    1
    43     6    41    1
    44     6    42    1
    45    21    43    1
    46    21    44    1
    47     7    45    1
    48     7    46    1
    49     9    47    1
    50    16    48    1
    51    16    49    1
    52    18    50    1
@<TRIPOS>SUBSTRUCTURE
     1 RES1        1 GROUP             0 ****  ****    0  
@<TRIPOS>MOLECULE
3QTU:A:X44451
    44    46     1     0     0
SMALL
NO_CHARGES
****
Generated from the CSD

@<TRIPOS>ATOM
     1 N1      28.5250   4.3100  65.3156   N.pl3     1 RES1   0.0000
     2 N2      29.6510   6.1440  65.9396   N.2       1 RES1   0.0000
     3 N3      27.1120   2.7050  64.4356   N.pl3     1 RES1   0.0000
     4 N4      32.3560  11.9560  64.0636   N.pl3     1 RES1   0.0000
     5 N5      23.4050   8.7950  58.0366   N.pl3     1 RES1   0.0000
     6 C6      26.8520   4.9410  63.7906   C.2       1 RES1   0.0000
     7 C7      27.4760   3.9240  64.5106   C.2       1 RES1   0.0000
     8 C8      28.7110   5.5960  65.2326   C.2       1 RES1   0.0000
     9 C9      30.3850   7.1770  65.6836   C.2       1 RES1   0.0000
    10 C10     25.7800   4.7720  62.9076   C.2       1 RES1   0.0000
    11 C11     25.2980   5.8210  62.1486   C.2       1 RES1   0.0000
    12 C12     31.4100   7.4990  66.6276   C.2       1 RES1   0.0000
    13 C13     32.2540   8.6070  66.4096   C.2       1 RES1   0.0000
    14 C14     32.0780   9.4030  65.2426   C.2       1 RES1   0.0000
    15 C15     31.0690   9.0970  64.3096   C.2       1 RES1   0.0000
    16 C16     30.2260   7.9980  64.5216   C.2       1 RES1   0.0000
    17 C17     23.8960   6.0900  62.1276   C.2       1 RES1   0.0000
    18 C18     23.3980   7.1620  61.3546   C.2       1 RES1   0.0000
    19 C19     24.2860   7.9740  60.5996   C.2       1 RES1   0.0000
    20 C20     25.6780   7.7210  60.6076   C.2       1 RES1   0.0000
    21 C21     26.1850   6.6430  61.3786   C.2       1 RES1   0.0000
    22 O22     25.2680   3.6740  62.7816   O.2       1 RES1   0.0000
    23 O23     34.2480  10.2720  64.1686   O.2       1 RES1   0.0000
    24 O24     33.6250  11.2840  66.2136   O.2       1 RES1   0.0000
    25 O25     22.3550   9.7070  60.1946   O.2       1 RES1   0.0000
    26 O26     24.5580  10.4320  59.6486   O.2       1 RES1   0.0000
    27 S27     27.6260   6.4330  64.1626   S.3       1 RES1   0.0000
    28 S28     33.1440  10.7660  64.9496   S.o2      1 RES1   0.0000
    29 S29     23.6330   9.3260  59.6266   S.o2      1 RES1   0.0000
    30 H1      31.5390   6.8859  67.5183   H         1 RES1   0.0000
    31 H2      23.2124   5.4703  62.7061   H         1 RES1   0.0000
    32 H3      29.0750   3.6810  65.8918   H         1 RES1   0.0000
    33 H4      22.3286   7.3670  61.3373   H         1 RES1   0.0000
    34 H5      26.3362   2.4430  63.8358   H         1 RES1   0.0000
    35 H6      27.5979   1.9961  64.9756   H         1 RES1   0.0000
    36 H7      32.8444  12.8101  63.8141   H         1 RES1   0.0000
    37 H8      31.3915  11.8209  63.7777   H         1 RES1   0.0000
    38 H9      23.0380   9.4318  57.3366   H         1 RES1   0.0000
    39 H10     23.6352   7.8396  57.7827   H         1 RES1   0.0000
    40 H11     33.0345   8.8520  67.1284   H         1 RES1   0.0000
    41 H12     29.4454   7.7670  63.7983   H         1 RES1   0.0000
    42 H13     27.2547   6.4388  61.3854   H         1 RES1   0.0000
    43 H14     26.3539   8.3476  60.0276   H         1 RES1   0.0000
    44 H15     30.9435   9.7153  63.4220   H         1 RES1   0.0000
@<TRIPOS>BOND
     1     1     7    1
     2     1     8    1
     3     2     8    2
     4     2     9    1
     5     3     7    1
     6     4    28    1
     7     5    29    1
     8     6     7    2
     9     6    10    1
    10     6    27    1
    11     8    27    1
    12     9    12    2
    13     9    16    1
    14    10    11    1
    15    10    22    2
    16    11    17    2
    17    11    21    1
    18    12    13    1
    19    13    14    2
    20    14    15    1
    21    14    28    1
    22    15    16    2
    23    17    18    1
    24    18    19    2
    25    19    20    1
    26    19    29    1
    27    20    21    2
    28    23    28    2
    29    24    28    2
    30    25    29    2
    31    26    29    2
    32    12    30    1
    33    17    31    1
    34     1    32    1
    35    18    33    1
    36     3    34    1
    37     3    35    1
    38     4    36    1
    39     4    37    1
    40     5    38    1
    41     5    39    1
    42    13    40    1
    43    16    41    1
    44    21    42    1
    45    20    43    1
    46    15    44    1
@<TRIPOS>SUBSTRUCTURE
     1 RES1        1 GROUP             0 ****  ****    0  
@<TRIPOS>MOLECULE
3QTX:A:X43299
    41    43     1     0     0
SMALL
USER_CHARGES
****
Generated from the CSD

@<TRIPOS>ATOM
     1 N1      28.2442   4.4089  65.3670   N.2       1 RES1   0.0000
     2 C2      27.1652   4.1240  64.6239   C.2       1 RES1   0.0000
     3 N3      26.5902   2.9020  64.7129   N.pl3     1 RES1   0.0000
     4 C4      26.7452   5.1709  63.7939   C.2       1 RES1   0.0000
     5 C5      25.6752   5.1459  62.9159   C.2       1 RES1   0.0000
     6 C6      25.2842   6.2989  62.0409   C.2       1 RES1   0.0000
     7 C7      23.9462   6.8069  62.0529   C.2       1 RES1   0.0000
     8 C8      23.5622   7.9229  61.2129   C.2       1 RES1   0.0000
     9 C9      24.5742   8.5089  60.3599   C.2       1 RES1   0.0000
    10 C10     25.9012   8.0039  60.3429   C.2       1 RES1   0.0000
    11 C11     26.2572   6.9079  61.1769   C.2       1 RES1   0.0000
    12 O12     24.9102   4.0290  62.7939   O.3       1 RES1   0.0000
    13 S13     27.7682   6.5459  64.0009   S.3       1 RES1   0.0000
    14 C14     28.7072   5.6409  65.1370   C.2       1 RES1   0.0000
    15 N15     29.8312   6.0619  65.8130   N.2       1 RES1   0.0000
    16 C16     30.5512   7.2169  65.5940   C.2       1 RES1   0.0000
    17 N17     22.3102   8.3969  61.2349   N.pl3     1 RES1   1.0000
    18 O18     21.3792   7.8589  62.0189   O.3       1 RES1  -1.0000
    19 O19     21.9722   9.3349  60.5419   O.2       1 RES1   0.0000
    20 C20     31.7182   7.4239  66.3900   C.2       1 RES1   0.0000
    21 C21     32.5483   8.5449  66.1650   C.2       1 RES1   0.0000
    22 C22     32.2373   9.4839  65.1510   C.2       1 RES1   0.0000
    23 C23     31.0792   9.3179  64.3559   C.2       1 RES1   0.0000
    24 C24     30.2472   8.1919  64.5679   C.2       1 RES1   0.0000
    25 S25     33.3093  10.8299  64.8809   S.o2      1 RES1   0.0000
    26 O26     34.6663  10.1679  64.2409   O.2       1 RES1   0.0000
    27 O27     33.6823  11.5289  66.1670   O.2       1 RES1   0.0000
    28 N28     32.7693  11.7799  63.7699   N.pl3     1 RES1   0.0000
    29 H1      33.2961  12.6076  63.5098   H         1 RES1   0.0000
    30 H2      31.8908  11.5710  63.3064   H         1 RES1   0.0000
    31 H3      27.2772   6.5268  61.1603   H         1 RES1   0.0000
    32 H4      23.2046   6.3469  62.7043   H         1 RES1   0.0000
    33 H5      30.8299  10.0490  63.5882   H         1 RES1   0.0000
    34 H6      24.3135   9.3511  59.7206   H         1 RES1   0.0000
    35 H7      26.6470   8.4560  59.6908   H         1 RES1   0.0000
    36 H8      31.9702   6.7132  67.1757   H         1 RES1   0.0000
    37 H9      24.5001   3.8112  63.6716   H         1 RES1   0.0000
    38 H10     25.7733   2.6834  64.1516   H         1 RES1   0.0000
    39 H11     26.9759   2.2042  65.3410   H         1 RES1   0.0000
    40 H12     33.4369   8.6886  66.7778   H         1 RES1   0.0000
    41 H13     29.3623   8.0568  63.9477   H         1 RES1   0.0000
@<TRIPOS>BOND
     1     1     2    2
     2     1    14    1
     3     2     3    1
     4     2     4    1
     5     4     5    2
     6     4    13    1
     7     5     6    1
     8     5    12    1
     9     6     7    2
    10     6    11    1
    11     7     8    1
    12     8     9    2
    13     8    17    1
    14     9    10    1
    15    10    11    2
    16    13    14    1
    17    14    15    2
    18    15    16    1
    19    16    20    2
    20    16    24    1
    21    17    18    1
    22    17    19    2
    23    20    21    1
    24    21    22    2
    25    22    23    1
    26    22    25    1
    27    23    24    2
    28    25    26    2
    29    25    27    2
    30    25    28    1
    31    28    29    1
    32    28    30    1
    33    11    31    1
    34     7    32    1
    35    23    33    1
    36     9    34    1
    37    10    35    1
    38    20    36    1
    39    12    37    1
    40     3    38    1
    41     3    39    1
    42    21    40    1
    43    24    41    1
@<TRIPOS>SUBSTRUCTURE
     1 RES1        1 GROUP             0 ****  ****    0  
@<TRIPOS>MOLECULE
2C6I:A:DT11299
    50    53     1     0     0
SMALL
NO_CHARGES
****
Generated from the CSD

@<TRIPOS>ATOM
     1 O1      34.6883  10.2508  63.9029   O.2       1 RES1   0.0000
     2 S2      33.5293  10.7827  64.6379   S.o2      1 RES1   0.0000
     3 O3      33.9943  11.1267  65.9789   O.2       1 RES1   0.0000
     4 N4      32.9173  12.0207  63.8199   N.pl3     1 RES1   0.0000
     5 C5      32.3473   9.5588  64.8709   C.2       1 RES1   0.0000
     6 C6      32.1224   9.0538  66.1459   C.2       1 RES1   0.0000
     7 C7      31.6334   9.1498  63.7389   C.2       1 RES1   0.0000
     8 C8      30.6864   8.1498  63.9369   C.2       1 RES1   0.0000
     9 C9      31.1604   8.0528  66.3319   C.2       1 RES1   0.0000
    10 C10     30.4354   7.6048  65.2149   C.2       1 RES1   0.0000
    11 N11     29.5004   6.6178  65.3939   N.2       1 RES1   0.0000
    12 C12     28.3884   6.4198  64.6089   C.2       1 RES1   0.0000
    13 N13     27.7744   5.2049  64.5619   N.pl3     1 RES1   0.0000
    14 C14     26.6835   4.9569  63.8199   C.2       1 RES1   0.0000
    15 N15     26.1085   5.9159  63.0769   N.2       1 RES1   0.0000
    16 N16     26.3365   3.6599  63.9339   N.pl3     1 RES1   0.0000
    17 C17     27.2604   3.1289  64.7739   C.2       1 RES1   0.0000
    18 N18     28.1234   4.0859  65.1689   N.2       1 RES1   0.0000
    19 C19     27.7904   7.4648  63.8919   C.2       1 RES1   0.0000
    20 C20     26.6625   7.1758  63.1159   C.2       1 RES1   0.0000
    21 C21     26.3655   7.9978  61.0019   C.3       1 RES1   0.0000
    22 O22     26.0795   8.1738  62.3919   O.3       1 RES1   0.0000
    23 C23     26.1795   9.3468  60.2879   C.3       1 RES1   0.0000
    24 C24     25.0065  10.1868  60.8099   C.3       1 RES1   0.0000
    25 C25     24.9755  11.5307  60.0739   C.3       1 RES1   0.0000
    26 C26     24.8525  11.2997  58.5609   C.3       1 RES1   0.0000
    27 C27     26.0385  10.4687  58.0659   C.3       1 RES1   0.0000
    28 C28     26.0275   9.1188  58.7819   C.3       1 RES1   0.0000
    29 H1      26.9684  10.9915  58.2849   H         1 RES1   0.0000
    30 H2      25.9536  10.3137  56.9913   H         1 RES1   0.0000
    31 H3      25.1307  10.3602  61.8778   H         1 RES1   0.0000
    32 H4      24.0725   9.6550  60.6347   H         1 RES1   0.0000
    33 H5      24.8447  12.2603  58.0479   H         1 RES1   0.0000
    34 H6      23.9256  10.7682  58.3504   H         1 RES1   0.0000
    35 H7      25.0857   8.6091  58.5839   H         1 RES1   0.0000
    36 H8      26.8537   8.5082  58.4207   H         1 RES1   0.0000
    37 H9      25.8946  12.0766  60.2816   H         1 RES1   0.0000
    38 H10     24.1221  12.1117  60.4203   H         1 RES1   0.0000
    39 H11     25.6847   7.2613  60.5777   H         1 RES1   0.0000
    40 H12     27.3922   7.6562  60.8790   H         1 RES1   0.0000
    41 H13     32.1070  12.5154  64.1790   H         1 RES1   0.0000
    42 H14     33.3406  12.3089  62.9435   H         1 RES1   0.0000
    43 H15     28.1931   8.4756  63.9375   H         1 RES1   0.0000
    44 H16     32.6899   9.4335  66.9942   H         1 RES1   0.0000
    45 H17     30.1233   7.7772  63.0825   H         1 RES1   0.0000
    46 H18     25.5569   3.1853  63.4899   H         1 RES1   0.0000
    47 H19     31.8091   9.5894  62.7582   H         1 RES1   0.0000
    48 H20     27.2989   2.0853  65.0828   H         1 RES1   0.0000
    49 H21     30.9786   7.6315  67.3195   H         1 RES1   0.0000
    50 H22     27.0893   9.9255  60.4406   H         1 RES1   0.0000
@<TRIPOS>BOND
     1     1     2    2
     2     2     3    2
     3     2     4    1
     4     2     5    1
     5     5     6    2
     6     5     7    1
     7     6     9    1
     8     7     8    2
     9     8    10    1
    10     9    10    2
    11    10    11    1
    12    11    12    2
    13    12    13    1
    14    12    19    1
    15    13    14    1
    16    13    18    1
    17    14    15    2
    18    14    16    1
    19    15    20    1
    20    16    17    1
    21    17    18    2
    22    19    20    2
    23    20    22    1
    24    21    22    1
    25    21    23    1
    26    23    24    1
    27    23    28    1
    28    24    25    1
    29    25    26    1
    30    26    27    1
    31    27    28    1
    32    27    29    1
    33    27    30    1
    34    24    31    1
    35    24    32    1
    36    26    33    1
    37    26    34    1
    38    28    35    1
    39    28    36    1
    40    25    37    1
    41    25    38    1
    42    21    39    1
    43    21    40    1
    44     4    41    1
    45     4    42    1
    46    19    43    1
    47     6    44    1
    48     8    45    1
    49    16    46    1
    50     7    47    1
    51    17    48    1
    52     9    49    1
    53    23    50    1
@<TRIPOS>SUBSTRUCTURE
     1 RES1        1 GROUP             0 ****  ****    0  
@<TRIPOS>MOLECULE
2C6M:A:DT51297
    47    50     1     0     0
SMALL
NO_CHARGES
****
Generated from the CSD

@<TRIPOS>ATOM
     1 N1      34.0837  11.2733  66.1600   N.pl3     1 RES1   0.0000
     2 S2      33.5697  10.8233  64.7320   S.o2      1 RES1   0.0000
     3 O3      32.9567  11.9663  64.0460   O.2       1 RES1   0.0000
     4 O4      34.6867  10.3173  63.9420   O.2       1 RES1   0.0000
     5 C5      32.3747   9.5853  64.8970   C.2       1 RES1   0.0000
     6 C6      32.0807   9.0653  66.1440   C.2       1 RES1   0.0000
     7 C7      31.6967   9.1243  63.7600   C.2       1 RES1   0.0000
     8 C8      30.7247   8.1382  63.8770   C.2       1 RES1   0.0000
     9 C9      31.1217   8.0642  66.2670   C.2       1 RES1   0.0000
    10 C10     30.4057   7.6232  65.1360   C.2       1 RES1   0.0000
    11 N11     29.5267   6.5852  65.2740   N.pl3     1 RES1   0.0000
    12 C12     28.3688   6.4022  64.5000   C.2       1 RES1   0.0000
    13 N13     27.7738   5.2041  64.5190   N.pl3     1 RES1   0.0000
    14 C14     26.6658   4.9591  63.8410   C.2       1 RES1   0.0000
    15 N15     26.0778   5.8862  63.0801   N.2       1 RES1   0.0000
    16 N16     26.3418   3.6761  63.9850   N.2       1 RES1   0.0000
    17 C17     27.2808   3.1231  64.8030   C.2       1 RES1   0.0000
    18 N18     28.1528   4.1091  65.1440   N.2       1 RES1   0.0000
    19 C19     27.7458   7.4612  63.7610   C.2       1 RES1   0.0000
    20 C20     26.5758   7.1472  63.0211   C.2       1 RES1   0.0000
    21 O21     25.8758   8.0862  62.2861   O.3       1 RES1   0.0000
    22 C22     26.5328   9.2753  62.1061   C.3       1 RES1   0.0000
    23 C23     25.9568  10.2963  63.0951   C.3       1 RES1   0.0000
    24 C24     26.5478  11.6903  62.8341   C.3       1 RES1   0.0000
    25 C25     26.2138  12.1353  61.4091   C.3       1 RES1   0.0000
    26 C26     26.8178  11.1393  60.4181   C.3       1 RES1   0.0000
    27 C27     26.2348   9.7453  60.6711   C.3       1 RES1   0.0000
    28 H1      27.3248   2.0835  65.1243   H         1 RES1   0.0000
    29 H2      26.6296  13.1257  61.2296   H         1 RES1   0.0000
    30 H3      25.1328  12.1668  61.2810   H         1 RES1   0.0000
    31 H4      25.1563   9.7782  60.5238   H         1 RES1   0.0000
    32 H5      26.6761   9.0415  59.9669   H         1 RES1   0.0000
    33 H6      27.8986  11.1092  60.5478   H         1 RES1   0.0000
    34 H7      26.5827  11.4515  59.4016   H         1 RES1   0.0000
    35 H8      30.2130   7.7678  62.9899   H         1 RES1   0.0000
    36 H9      28.1555   8.4702  63.7671   H         1 RES1   0.0000
    37 H10     30.9237   7.6198  67.2413   H         1 RES1   0.0000
    38 H11     31.9325   9.5404  62.7817   H         1 RES1   0.0000
    39 H12     32.5978   9.4379  67.0270   H         1 RES1   0.0000
    40 H13     29.7259   5.8942  65.9903   H         1 RES1   0.0000
    41 H14     27.6041   9.1519  62.2579   H         1 RES1   0.0000
    42 H15     26.2003   9.9882  64.1108   H         1 RES1   0.0000
    43 H16     24.8749  10.3380  62.9779   H         1 RES1   0.0000
    44 H17     27.6292  11.6536  62.9574   H         1 RES1   0.0000
    45 H18     26.1255  12.4007  63.5432   H         1 RES1   0.0000
    46 H19     34.5366  10.6014  66.7713   H         1 RES1   0.0000
    47 H20     33.9604  12.2337  66.4643   H         1 RES1   0.0000
@<TRIPOS>BOND
     1     1     2    1
     2     2     3    2
     3     2     4    2
     4     2     5    1
     5     5     6    2
     6     5     7    1
     7     6     9    1
     8     7     8    2
     9     8    10    1
    10     9    10    2
    11    10    11    1
    12    11    12    1
    13    12    13    1
    14    12    19    2
    15    13    14    1
    16    13    18    1
    17    14    15    1
    18    14    16    2
    19    15    20    2
    20    16    17    1
    21    17    18    2
    22    19    20    1
    23    20    21    1
    24    21    22    1
    25    22    23    1
    26    22    27    1
    27    23    24    1
    28    24    25    1
    29    25    26    1
    30    26    27    1
    31    17    28    1
    32    25    29    1
    33    25    30    1
    34    27    31    1
    35    27    32    1
    36    26    33    1
    37    26    34    1
    38     8    35    1
    39    19    36    1
    40     9    37    1
    41     7    38    1
    42     6    39    1
    43    11    40    1
    44    22    41    1
    45    23    42    1
    46    23    43    1
    47    24    44    1
    48    24    45    1
    49     1    46    1
    50     1    47    1
@<TRIPOS>SUBSTRUCTURE
     1 RES1        1 GROUP             0 ****  ****    0  
@<TRIPOS>MOLECULE
2C6L:A:DT41299
    50    53     1     0     0
SMALL
NO_CHARGES
****
Generated from the CSD

@<TRIPOS>ATOM
     1 O1      34.2901  11.2017  66.0005   O.2       1 RES1   0.0000
     2 S2      33.6962  10.9997  64.7685   S.o2      1 RES1   0.0000
     3 O3      34.5991  10.5207  63.8485   O.2       1 RES1   0.0000
     4 N4      32.9962  12.2836  64.2665   N.pl3     1 RES1   0.0000
     5 C5      32.4572   9.7547  64.9855   C.2       1 RES1   0.0000
     6 C6      32.1402   9.3137  66.2655   C.2       1 RES1   0.0000
     7 C7      31.1892   8.3308  66.4485   C.2       1 RES1   0.0000
     8 C8      30.5392   7.7708  65.3455   C.2       1 RES1   0.0000
     9 C9      30.8722   8.1918  64.0475   C.2       1 RES1   0.0000
    10 C10     31.8242   9.1917  63.8695   C.2       1 RES1   0.0000
    11 N11     29.6313   6.7708  65.5365   N.2       1 RES1   0.0000
    12 C12     28.5323   6.6688  64.7635   C.2       1 RES1   0.0000
    13 N13     27.9273   5.4928  64.6155   N.pl3     1 RES1   0.0000
    14 N14     28.2463   4.3259  65.1305   N.2       1 RES1   0.0000
    15 C15     27.3273   3.4209  64.6805   C.2       1 RES1   0.0000
    16 C16     26.8473   5.3648  63.8725   C.2       1 RES1   0.0000
    17 N17     26.4503   4.0889  63.8905   N.2       1 RES1   0.0000
    18 N18     26.3033   6.4168  63.2235   N.pl3     1 RES1   0.0000
    19 C19     26.8953   7.6388  63.3225   C.2       1 RES1   0.0000
    20 C20     28.0093   7.7858  64.1285   C.2       1 RES1   0.0000
    21 N21     26.3193   8.7227  62.7665   N.pl3     1 RES1   0.0000
    22 C22     26.4303   9.0127  61.3525   C.3       1 RES1   0.0000
    23 C23     25.6954  10.3387  61.1715   C.3       1 RES1   0.0000
    24 C24     25.5734  10.6547  59.6854   C.3       1 RES1   0.0000
    25 C25     24.7894   9.5467  58.9944   C.3       1 RES1   0.0000
    26 N26     24.6584   9.8557  57.5614   N.3       1 RES1   0.0000
    27 C27     25.5244   8.2198  59.1674   C.3       1 RES1   0.0000
    28 C28     25.6524   7.8978  60.6555   C.3       1 RES1   0.0000
    29 H1      25.4622   6.2977  62.6680   H         1 RES1   0.0000
    30 H2      28.4691   8.7638  64.2627   H         1 RES1   0.0000
    31 H3      25.7908   9.3560  63.3579   H         1 RES1   0.0000
    32 H4      25.5813   9.9265  57.1448   H         1 RES1   0.0000
    33 H5      24.1358   9.1166  57.1023   H         1 RES1   0.0000
    34 H6      27.4662   9.0648  61.0206   H         1 RES1   0.0000
    35 H7      26.2524  11.1327  61.6667   H         1 RES1   0.0000
    36 H8      24.7011  10.2651  61.6096   H         1 RES1   0.0000
    37 H9      23.7987   9.4723  59.4404   H         1 RES1   0.0000
    38 H10     24.6598   7.8174  61.0962   H         1 RES1   0.0000
    39 H11     26.1817   6.9541  60.7785   H         1 RES1   0.0000
    40 H12     27.3033   2.3574  64.9135   H         1 RES1   0.0000
    41 H13     26.5674  10.7245  59.2462   H         1 RES1   0.0000
    42 H14     25.0525  11.6024  59.5572   H         1 RES1   0.0000
    43 H15     26.5170   8.2945  58.7256   H         1 RES1   0.0000
    44 H16     24.9651   7.4278  58.6716   H         1 RES1   0.0000
    45 H17     32.6451   9.7463  67.1280   H         1 RES1   0.0000
    46 H18     32.0759   9.5349  62.8671   H         1 RES1   0.0000
    47 H19     32.5161  12.2833  63.3722   H         1 RES1   0.0000
    48 H20     33.0168  13.1268  64.8312   H         1 RES1   0.0000
    49 H21     30.3878   7.7380  63.1842   H         1 RES1   0.0000
    50 H22     30.9449   7.9910  67.4539   H         1 RES1   0.0000
@<TRIPOS>BOND
     1     1     2    2
     2     2     3    2
     3     2     4    1
     4     2     5    1
     5     5     6    2
     6     5    10    1
     7     6     7    1
     8     7     8    2
     9     8     9    1
    10     8    11    1
    11     9    10    2
    12    11    12    2
    13    12    13    1
    14    12    20    1
    15    13    14    1
    16    13    16    1
    17    14    15    2
    18    15    17    1
    19    16    17    2
    20    16    18    1
    21    18    19    1
    22    19    20    2
    23    19    21    1
    24    21    22    1
    25    22    23    1
    26    22    28    1
    27    23    24    1
    28    24    25    1
    29    25    26    1
    30    25    27    1
    31    27    28    1
    32    18    29    1
    33    20    30    1
    34    21    31    1
    35    26    32    1
    36    26    33    1
    37    22    34    1
    38    23    35    1
    39    23    36    1
    40    25    37    1
    41    28    38    1
    42    28    39    1
    43    15    40    1
    44    24    41    1
    45    24    42    1
    46    27    43    1
    47    27    44    1
    48     6    45    1
    49    10    46    1
    50     4    47    1
    51     4    48    1
    52     9    49    1
    53     7    50    1
@<TRIPOS>SUBSTRUCTURE
     1 RES1        1 GROUP             0 ****  ****    0  
@<TRIPOS>MOLECULE
5MHQ:A:8QT301
   108   112     1     0     0
SMALL
NO_CHARGES
****
Generated from the CSD

@<TRIPOS>ATOM
     1 C1      27.5184   7.7671  62.9618   C.2       1 RES1   0.0000
     2 C2      24.9403   4.2731  63.7508   C.3       1 RES1   0.0000
     3 C3      29.0824   6.7531  64.3739   C.2       1 RES1   0.0000
     4 C4      31.3834   7.6081  64.5579   C.3       1 RES1   0.0000
     5 C5      32.0344   9.9461  65.2069   C.2       1 RES1   0.0000
     6 C6      31.6194   8.6901  65.5819   C.2       1 RES1   0.0000
     7 C7      31.4234   8.4631  66.9189   C.2       1 RES1   0.0000
     8 C8      31.6344   9.4691  67.8249   C.2       1 RES1   0.0000
     9 C9      32.0354  10.6791  67.3679   C.2       1 RES1   0.0000
    10 C10     28.1684   5.7171  64.5819   C.2       1 RES1   0.0000
    11 C11     27.1054   3.9601  65.0569   C.2       1 RES1   0.0000
    12 N12     27.2724   8.7841  62.1188   N.pl3     1 RES1   0.0000
    13 N13     28.7294   7.7711  63.5708   N.2       1 RES1   0.0000
    14 C14     25.9593   9.0031  61.5128   C.3       1 RES1   0.0000
    15 N15     30.2864   6.7381  64.9529   N.pl3     1 RES1   0.0000
    16 C16     25.9253  11.3201  62.5348   C.3       1 RES1   0.0000
    17 C17     25.7473  10.4981  61.2878   C.3       1 RES1   0.0000
    18 N18     32.2474  10.9471  66.0689   N.2       1 RES1   0.0000
    19 N19     28.2484   4.5381  65.3259   N.2       1 RES1   0.0000
    20 N20     26.2604   4.6831  64.2579   N.pl3     1 RES1   0.0000
    21 C21     25.0563   3.9271  62.2888   C.3       1 RES1   0.0000
    22 C22     23.8863   5.3391  64.0198   C.3       1 RES1   0.0000
    23 C23     26.9704   5.8081  63.8968   C.2       1 RES1   0.0000
    24 N24     26.5724   6.8091  63.0878   N.2       1 RES1   0.0000
    25 C25     25.7663   8.1621  60.2328   C.3       1 RES1   0.0000
    26 C26     24.3833   8.3231  59.6488   C.3       1 RES1   0.0000
    27 O27     26.6674   8.5221  59.1898   O.3       1 RES1   0.0000
    28 C28     27.4954   7.7661  62.9558   C.2       1 RES1   0.0000
    29 C29     24.9413   4.2651  63.7508   C.3       1 RES1   0.0000
    30 C30     29.0684   6.7591  64.3749   C.2       1 RES1   0.0000
    31 C31     31.3714   7.6121  64.5599   C.3       1 RES1   0.0000
    32 C32     32.0444   9.9361  65.2329   C.2       1 RES1   0.0000
    33 C33     31.6204   8.6801  65.5939   C.2       1 RES1   0.0000
    34 C34     31.4264   8.4391  66.9289   C.2       1 RES1   0.0000
    35 C35     31.6484   9.4301  67.8449   C.2       1 RES1   0.0000
    36 C36     32.0604  10.6421  67.4039   C.2       1 RES1   0.0000
    37 C37     28.1614   5.7171  64.5849   C.2       1 RES1   0.0000
    38 C38     27.1054   3.9551  65.0599   C.2       1 RES1   0.0000
    39 N39     27.2354   8.7831  62.1088   N.pl3     1 RES1   0.0000
    40 N40     28.7084   7.7761  63.5688   N.2       1 RES1   0.0000
    41 C41     25.9583   8.9901  61.4098   C.3       1 RES1   0.0000
    42 N42     30.2714   6.7481  64.9579   N.pl3     1 RES1   0.0000
    43 C43     25.9703  11.2441  62.5918   C.3       1 RES1   0.0000
    44 C44     25.6513  10.4851  61.3328   C.3       1 RES1   0.0000
    45 N45     32.2694  10.9251  66.1079   N.2       1 RES1   0.0000
    46 N46     28.2474   4.5391  65.3289   N.2       1 RES1   0.0000
    47 N47     26.2614   4.6751  64.2589   N.pl3     1 RES1   0.0000
    48 C48     25.0573   3.9251  62.2878   C.3       1 RES1   0.0000
    49 C49     23.8923   5.3361  64.0228   C.3       1 RES1   0.0000
    50 C50     26.9644   5.8021  63.8978   C.2       1 RES1   0.0000
    51 N51     26.5604   6.8001  63.0868   N.2       1 RES1   0.0000
    52 C52     25.9153   8.3651  59.9938   C.3       1 RES1   0.0000
    53 C53     26.0953   6.8671  59.9538   C.3       1 RES1   0.0000
    54 O54     24.6563   8.6811  59.3908   O.3       1 RES1   0.0000
    55 H1      25.7675   3.1095  62.1599   H         1 RES1   0.0000
    56 H2      24.0832   3.6212  61.9074   H         1 RES1   0.0000
    57 H3      25.4050   4.7988  61.7385   H         1 RES1   0.0000
    58 H4      24.1830   6.2625  63.5296   H         1 RES1   0.0000
    59 H5      22.9286   5.0065  63.6373   H         1 RES1   0.0000
    60 H6      23.8155   5.5047  65.0959   H         1 RES1   0.0000
    61 H7      26.7038   8.8197  59.3959   H         1 RES1   0.0000
    62 H8      24.5579   9.6672  59.3274   H         1 RES1   0.0000
    63 H9      25.3033   6.3908  60.5298   H         1 RES1   0.0000
    64 H10     26.0502   6.5235  58.9214   H         1 RES1   0.0000
    65 H11     27.0623   6.6061  60.3813   H         1 RES1   0.0000
    66 H12     27.9767   9.4559  61.9414   H         1 RES1   0.0000
    67 H13     24.6436   3.3622  64.2819   H         1 RES1   0.0000
    68 H14     28.0267   9.4249  61.8939   H         1 RES1   0.0000
    69 H15     24.1735   6.2663  63.5260   H         1 RES1   0.0000
    70 H16     22.9248   5.0046  63.6331   H         1 RES1   0.0000
    71 H17     23.8070   5.5086  65.0926   H         1 RES1   0.0000
    72 H18     26.8450   2.9749  65.4409   H         1 RES1   0.0000
    73 H19     32.1944  11.4770  68.0918   H         1 RES1   0.0000
    74 H20     32.2068  10.1391  64.1754   H         1 RES1   0.0000
    75 H21     31.4828   9.2992  68.8898   H         1 RES1   0.0000
    76 H22     32.1992  10.1372  64.1475   H         1 RES1   0.0000
    77 H23     25.2112   8.6743  62.2326   H         1 RES1   0.0000
    78 H24     24.2158   9.3688  59.3952   H         1 RES1   0.0000
    79 H25     24.2952   7.7133  58.7509   H         1 RES1   0.0000
    80 H26     23.6414   8.0033  60.3791   H         1 RES1   0.0000
    81 H27     32.2723   7.0113  64.4443   H         1 RES1   0.0000
    82 H28     31.1266   8.0858  63.6104   H         1 RES1   0.0000
    83 H29     31.0948   7.4565  67.2611   H         1 RES1   0.0000
    84 H30     25.9203   7.1126  60.4792   H         1 RES1   0.0000
    85 H31     31.4968   9.2480  68.9078   H         1 RES1   0.0000
    86 H32     25.1753   8.5208  62.0035   H         1 RES1   0.0000
    87 H33     32.2311  11.4281  68.1381   H         1 RES1   0.0000
    88 H34     31.0994   7.4816  67.2619   H         1 RES1   0.0000
    89 H35     27.6017   8.3904  59.4994   H         1 RES1   0.0000
    90 H36     32.2894   7.0127  64.4555   H         1 RES1   0.0000
    91 H37     31.1430   8.0706  63.6018   H         1 RES1   0.0000
    92 H38     30.4447   6.0825  65.7114   H         1 RES1   0.0000
    93 H39     26.9365  11.1867  62.9163   H         1 RES1   0.0000
    94 H40     25.7605  12.3713  62.3032   H         1 RES1   0.0000
    95 H41     25.2078  10.9974  63.2878   H         1 RES1   0.0000
    96 H42     30.4260   6.0990  65.7228   H         1 RES1   0.0000
    97 H43     27.0316  11.1464  62.8155   H         1 RES1   0.0000
    98 H44     25.7237  12.2958  62.4540   H         1 RES1   0.0000
    99 H45     25.3865  10.8396  63.4173   H         1 RES1   0.0000
   100 H46     24.6446   3.3707  64.2839   H         1 RES1   0.0000
   101 H47     24.5900  10.6056  61.1206   H         1 RES1   0.0000
   102 H48     26.2350  10.9125  60.5188   H         1 RES1   0.0000
   103 H49     24.7357  10.6512  60.9147   H         1 RES1   0.0000
   104 H50     26.4645  10.8404  60.5432   H         1 RES1   0.0000
   105 H51     26.8473   2.9698  65.4453   H         1 RES1   0.0000
   106 H52     25.7654   3.1100  62.1643   H         1 RES1   0.0000
   107 H53     24.0819   3.6231  61.9093   H         1 RES1   0.0000
   108 H54     25.4055   4.7981  61.7362   H         1 RES1   0.0000
@<TRIPOS>BOND
     1     1    12    1
     2     1    13    2
     3     1    24    1
     4    28    39    1
     5    28    40    2
     6    28    51    1
     7     2    20    1
     8     2    21    1
     9     2    22    1
    10    29    47    1
    11    29    48    1
    12    29    49    1
    13     3    10    2
    14     3    13    1
    15     3    15    1
    16    30    37    2
    17    30    40    1
    18    30    42    1
    19     4     6    1
    20     4    15    1
    21    31    33    1
    22    31    42    1
    23     5     6    2
    24     5    18    1
    25    32    33    2
    26    32    45    1
    27     6     7    1
    28    33    34    1
    29     7     8    2
    30    34    35    2
    31     8     9    1
    32    35    36    1
    33     9    18    2
    34    36    45    2
    35    10    19    1
    36    10    23    1
    37    37    46    1
    38    37    50    1
    39    11    19    2
    40    11    20    1
    41    38    46    2
    42    38    47    1
    43    12    14    1
    44    39    41    1
    45    14    17    1
    46    14    25    1
    47    41    44    1
    48    41    52    1
    49    16    17    1
    50    43    44    1
    51    20    23    1
    52    47    50    1
    53    23    24    2
    54    50    51    2
    55    25    26    1
    56    25    27    1
    57    52    53    1
    58    52    54    1
    59    48    55    1
    60    48    56    1
    61    48    57    1
    62    49    58    1
    63    49    59    1
    64    49    60    1
    65    52    61    1
    66    54    62    1
    67    53    63    1
    68    53    64    1
    69    53    65    1
    70    39    66    1
    71    29    67    1
    72    12    68    1
    73    22    69    1
    74    22    70    1
    75    22    71    1
    76    11    72    1
    77     9    73    1
    78    32    74    1
    79     8    75    1
    80     5    76    1
    81    14    77    1
    82    26    78    1
    83    26    79    1
    84    26    80    1
    85    31    81    1
    86    31    82    1
    87    34    83    1
    88    25    84    1
    89    35    85    1
    90    41    86    1
    91    36    87    1
    92     7    88    1
    93    27    89    1
    94     4    90    1
    95     4    91    1
    96    15    92    1
    97    16    93    1
    98    16    94    1
    99    16    95    1
   100    42    96    1
   101    43    97    1
   102    43    98    1
   103    43    99    1
   104     2   100    1
   105    44   101    1
   106    44   102    1
   107    17   103    1
   108    17   104    1
   109    38   105    1
   110    21   106    1
   111    21   107    1
   112    21   108    1
@<TRIPOS>SUBSTRUCTURE
     1 RES1        1 GROUP             0 ****  ****    0  
@<TRIPOS>MOLECULE
4ACM:A:7YG1302
    54    56     1     0     0
SMALL
NO_CHARGES
****
Generated from the CSD

@<TRIPOS>ATOM
     1 C1      32.1339  15.9254  65.8702   C.3       1 RES1   0.0000
     2 N2      31.4989  14.6544  65.5322   N.3       1 RES1   0.0000
     3 C3      30.1129  14.8774  65.1212   C.3       1 RES1   0.0000
     4 C4      31.5769  13.7024  66.6461   C.3       1 RES1   0.0000
     5 C5      31.5059  12.2173  66.3012   C.3       1 RES1   0.0000
     6 N6      32.5899  11.8543  65.3772   N.pl3     1 RES1   0.0000
     7 S7      33.3369  10.4283  65.5042   S.o2      1 RES1   0.0000
     8 O8      33.9819  10.4053  66.7801   O.2       1 RES1   0.0000
     9 O9      34.1249  10.2733  64.3172   O.2       1 RES1   0.0000
    10 C10     32.0999   9.1772  65.4772   C.2       1 RES1   0.0000
    11 C11     31.2199   9.1162  64.4112   C.2       1 RES1   0.0000
    12 C12     30.2619   8.1202  64.3732   C.2       1 RES1   0.0000
    13 C13     30.1759   7.1512  65.3732   C.2       1 RES1   0.0000
    14 C14     31.0829   7.2362  66.4362   C.2       1 RES1   0.0000
    15 C15     32.0489   8.2262  66.4872   C.2       1 RES1   0.0000
    16 C16     29.1449   6.0832  65.3162   C.2       1 RES1   0.0000
    17 C17     29.2739   4.8731  66.0032   C.2       1 RES1   0.0000
    18 N18     28.4549   3.8361  65.7962   N.2       1 RES1   0.0000
    19 C19     27.4479   3.9821  64.9082   C.2       1 RES1   0.0000
    20 C20     27.3019   5.2321  64.1962   C.2       1 RES1   0.0000
    21 N21     28.1469   6.2532  64.4322   N.2       1 RES1   0.0000
    22 C22     26.2259   5.4721  63.1762   C.2       1 RES1   0.0000
    23 O23     25.3349   4.6451  63.0132   O.2       1 RES1   0.0000
    24 N24     26.3309   6.6382  62.5062   N.am      1 RES1   0.0000
    25 C25     25.4489   7.1672  61.5352   C.2       1 RES1   0.0000
    26 C26     25.9389   8.1632  60.7072   C.2       1 RES1   0.0000
    27 C27     25.1089   8.7292  59.7592   C.2       1 RES1   0.0000
    28 C28     23.7999   8.3062  59.6912   C.2       1 RES1   0.0000
    29 N29     23.2929   7.3482  60.4732   N.2       1 RES1   0.0000
    30 C30     24.1109   6.8012  61.3822   C.2       1 RES1   0.0000
    31 N31     26.6489   2.9381  64.6772   N.pl3     1 RES1   0.0000
    32 H1      23.7101   6.0291  62.0372   H         1 RES1   0.0000
    33 H2      25.8845   3.0209  64.0146   H         1 RES1   0.0000
    34 H3      26.8057   2.0615  65.1642   H         1 RES1   0.0000
    35 H4      27.1430   7.2060  62.7260   H         1 RES1   0.0000
    36 H5      26.9708   8.4977  60.8027   H         1 RES1   0.0000
    37 H6      23.1431   8.7774  58.9615   H         1 RES1   0.0000
    38 H7      25.4818   9.4941  59.0796   H         1 RES1   0.0000
    39 H8      31.5905  16.3965  66.6879   H         1 RES1   0.0000
    40 H9      33.1642  15.7469  66.1743   H         1 RES1   0.0000
    41 H10     32.1205  16.5805  65.0004   H         1 RES1   0.0000
    42 H11     30.0728   4.7704  66.7361   H         1 RES1   0.0000
    43 H12     30.5470  12.0033  65.8314   H         1 RES1   0.0000
    44 H13     31.6014  11.6317  67.2144   H         1 RES1   0.0000
    45 H14     32.8717  12.5064  64.6522   H         1 RES1   0.0000
    46 H15     31.2815   9.8481  63.6072   H         1 RES1   0.0000
    47 H16     29.5577   8.0913  63.5430   H         1 RES1   0.0000
    48 H17     31.0271   6.5060  67.2422   H         1 RES1   0.0000
    49 H18     30.0933  15.5293  64.2491   H         1 RES1   0.0000
    50 H19     29.6503  13.9236  64.8719   H         1 RES1   0.0000
    51 H20     29.5633  15.3453  65.9366   H         1 RES1   0.0000
    52 H21     30.7520  13.9214  67.3225   H         1 RES1   0.0000
    53 H22     32.5221  13.8748  67.1587   H         1 RES1   0.0000
    54 H23     32.7610   8.2587  67.3105   H         1 RES1   0.0000
@<TRIPOS>BOND
     1     1     2    1
     2     2     3    1
     3     2     4    1
     4     4     5    1
     5     5     6    1
     6     6     7    1
     7     7     8    2
     8     7     9    2
     9     7    10    1
    10    10    11    2
    11    10    15    1
    12    11    12    1
    13    12    13    2
    14    13    14    1
    15    13    16    1
    16    14    15    2
    17    16    17    2
    18    16    21    1
    19    17    18    1
    20    18    19    2
    21    19    20    1
    22    19    31    1
    23    20    21    2
    24    20    22    1
    25    22    23    2
    26    22    24   am
    27    24    25    1
    28    25    26    2
    29    25    30    1
    30    26    27    1
    31    27    28    2
    32    28    29    1
    33    29    30    2
    34    30    32    1
    35    31    33    1
    36    31    34    1
    37    24    35    1
    38    26    36    1
    39    28    37    1
    40    27    38    1
    41     1    39    1
    42     1    40    1
    43     1    41    1
    44    17    42    1
    45     5    43    1
    46     5    44    1
    47     6    45    1
    48    11    46    1
    49    12    47    1
    50    14    48    1
    51     3    49    1
    52     3    50    1
    53     3    51    1
    54     4    52    1
    55     4    53    1
    56    15    54    1
@<TRIPOS>SUBSTRUCTURE
     1 RES1        1 GROUP             0 ****  ****    0  
@<TRIPOS>MOLECULE
1Y8Y:A:CT7401
    32    34     1     0     0
SMALL
NO_CHARGES
****
Generated from the CSD

@<TRIPOS>ATOM
     1 O1      34.1972  11.3029  65.9271   O.2       1 RES1   0.0000
     2 S2      33.6842  10.8779  64.6071   S.o2      1 RES1   0.0000
     3 O3      34.7602  10.3039  63.8361   O.2       1 RES1   0.0000
     4 C4      32.4342   9.6929  64.8281   C.2       1 RES1   0.0000
     5 C5      32.2372   9.1629  66.1191   C.2       1 RES1   0.0000
     6 C6      31.7412   9.2619  63.6821   C.2       1 RES1   0.0000
     7 C7      30.7602   8.3109  63.8711   C.2       1 RES1   0.0000
     8 C8      31.2542   8.2089  66.2941   C.2       1 RES1   0.0000
     9 C9      30.5092   7.7819  65.1521   C.2       1 RES1   0.0000
    10 N10     29.5702   6.7919  65.3171   N.pl3     1 RES1   0.0000
    11 C11     28.4452   6.6609  64.5761   C.2       1 RES1   0.0000
    12 N12     27.8462   5.4460  64.5161   N.pl3     1 RES1   0.0000
    13 C13     26.7212   5.2770  63.7961   C.2       1 RES1   0.0000
    14 N14     26.1532   6.3159  63.0931   N.2       1 RES1   0.0000
    15 C15     27.3312   3.3380  64.6541   C.2       1 RES1   0.0000
    16 N16     28.2282   4.3030  65.0401   N.2       1 RES1   0.0000
    17 C17     27.8342   7.7539  63.9511   C.2       1 RES1   0.0000
    18 C18     26.6682   7.5529  63.1981   C.2       1 RES1   0.0000
    19 Cl19    25.9862   8.7179  62.4342   Cl        1 RES1   0.0000
    20 C20     26.3472   3.9520  63.8691   C.2       1 RES1   0.0000
    21 C21     33.0902  12.4389  63.9311   C.3       1 RES1   0.0000
    22 H1      28.2602   8.7514  64.0486   H         1 RES1   0.0000
    23 H2      25.4752   3.4840  63.4146   H         1 RES1   0.0000
    24 H3      27.3768   2.2812  64.9128   H         1 RES1   0.0000
    25 H4      33.9175  13.1439  63.8645   H         1 RES1   0.0000
    26 H5      32.6761  12.2703  62.9381   H         1 RES1   0.0000
    27 H6      32.3179  12.8460  64.5821   H         1 RES1   0.0000
    28 H7      32.8454   9.4975  66.9582   H         1 RES1   0.0000
    29 H8      31.9682   9.6597  62.6941   H         1 RES1   0.0000
    30 H9      30.1737   7.9655  63.0211   H         1 RES1   0.0000
    31 H10     31.0516   7.7918  67.2794   H         1 RES1   0.0000
    32 H11     29.7325   6.1080  66.0493   H         1 RES1   0.0000
@<TRIPOS>BOND
     1     1     2    2
     2     2     3    2
     3     2     4    1
     4     2    21    1
     5     4     5    2
     6     4     6    1
     7     5     8    1
     8     6     7    2
     9     7     9    1
    10     8     9    2
    11     9    10    1
    12    10    11    1
    13    11    12    1
    14    11    17    2
    15    12    13    1
    16    12    16    1
    17    13    14    1
    18    13    20    2
    19    14    18    2
    20    15    16    2
    21    15    20    1
    22    17    18    1
    23    18    19    1
    24    17    22    1
    25    20    23    1
    26    15    24    1
    27    21    25    1
    28    21    26    1
    29    21    27    1
    30     5    28    1
    31     6    29    1
    32     7    30    1
    33     8    31    1
    34    10    32    1
@<TRIPOS>SUBSTRUCTURE
     1 RES1        1 GROUP             0 ****  ****    0  
@<TRIPOS>MOLECULE
1PXN:A:CK6500
    37    39     1     0     0
SMALL
NO_CHARGES
****
Generated from the CSD

@<TRIPOS>ATOM
     1 C1      24.3570   4.7969  62.2137   C.3       1 RES1   0.0000
     2 C2      25.2950   5.9629  62.3297   C.2       1 RES1   0.0000
     3 N3      24.9330   7.0709  61.6477   N.2       1 RES1   0.0000
     4 C4      25.6940   8.1189  61.7117   C.2       1 RES1   0.0000
     5 N5      25.3770   9.2288  61.0587   N.pl3     1 RES1   0.0000
     6 C6      26.1360  10.4818  61.0397   C.3       1 RES1   0.0000
     7 C7      26.4660   6.1539  63.0016   C.2       1 RES1   0.0000
     8 S8      27.0870   7.8209  62.7287   S.3       1 RES1   0.0000
     9 C9      27.3040   5.3159  63.9016   C.2       1 RES1   0.0000
    10 C10     26.9710   3.9869  64.1976   C.2       1 RES1   0.0000
    11 N11     28.4040   5.9019  64.4276   N.2       1 RES1   0.0000
    12 C12     29.2270   5.2169  65.2766   C.2       1 RES1   0.0000
    13 N13     28.9860   3.9119  65.6246   N.2       1 RES1   0.0000
    14 C14     27.8620   3.3519  65.0656   C.2       1 RES1   0.0000
    15 N15     30.3110   5.8019  65.8036   N.pl3     1 RES1   0.0000
    16 C16     30.8080   7.0929  65.6236   C.2       1 RES1   0.0000
    17 C17     30.1930   8.0309  64.7746   C.2       1 RES1   0.0000
    18 C18     30.6530   9.3088  64.5676   C.2       1 RES1   0.0000
    19 C19     31.9820   7.5489  66.2916   C.2       1 RES1   0.0000
    20 C20     32.4700   8.8638  66.0956   C.2       1 RES1   0.0000
    21 C21     31.7980   9.7478  65.2246   C.2       1 RES1   0.0000
    22 O22     32.2070  11.0538  64.9696   O.3       1 RES1   0.0000
    23 H1      26.0927   3.4919  63.7860   H         1 RES1   0.0000
    24 H2      33.3664   9.1938  66.6185   H         1 RES1   0.0000
    25 H3      31.4870  11.6840  65.2352   H         1 RES1   0.0000
    26 H4      24.2735   4.5007  61.1691   H         1 RES1   0.0000
    27 H5      24.7414   3.9622  62.7981   H         1 RES1   0.0000
    28 H6      23.3755   5.0818  62.5898   H         1 RES1   0.0000
    29 H7      27.1311  10.2974  60.6375   H         1 RES1   0.0000
    30 H8      25.6206  11.2090  60.4140   H         1 RES1   0.0000
    31 H9      26.2205  10.8704  62.0535   H         1 RES1   0.0000
    32 H10     27.6461   2.3162  65.3237   H         1 RES1   0.0000
    33 H11     30.8539   5.2159  66.4298   H         1 RES1   0.0000
    34 H12     24.5197   9.2080  60.5158   H         1 RES1   0.0000
    35 H13     29.2919   7.7235  64.2460   H         1 RES1   0.0000
    36 H14     30.1224   9.9767  63.8906   H         1 RES1   0.0000
    37 H15     32.5120   6.8753  66.9634   H         1 RES1   0.0000
@<TRIPOS>BOND
     1     1     2    1
     2     2     3    1
     3     2     7    2
     4     3     4    2
     5     4     5    1
     6     4     8    1
     7     5     6    1
     8     7     8    1
     9     7     9    1
    10     9    10    2
    11     9    11    1
    12    10    14    1
    13    11    12    2
    14    12    13    1
    15    12    15    1
    16    13    14    2
    17    15    16    1
    18    16    17    2
    19    16    19    1
    20    17    18    1
    21    18    21    2
    22    19    20    2
    23    20    21    1
    24    21    22    1
    25    10    23    1
    26    20    24    1
    27    22    25    1
    28     1    26    1
    29     1    27    1
    30     1    28    1
    31     6    29    1
    32     6    30    1
    33     6    31    1
    34    14    32    1
    35    15    33    1
    36     5    34    1
    37    17    35    1
    38    18    36    1
    39    19    37    1
@<TRIPOS>SUBSTRUCTURE
     1 RES1        1 GROUP             0 ****  ****    0  
@<TRIPOS>MOLECULE
1P5E:A:TBS301
    16    17     1     0     0
SMALL
NO_CHARGES
****
Generated from the CSD

@<TRIPOS>ATOM
     1 C1      27.2834   6.1123  64.2497   C.2       1 RES1   0.0000
     2 C2      26.4864   5.0512  63.9317   C.2       1 RES1   0.0000
     3 C3      25.4444   5.2603  63.0707   C.2       1 RES1   0.0000
     4 C4      27.0494   7.3694  63.7237   C.2       1 RES1   0.0000
     5 N5      25.5694   8.7454  62.2148   N.pl3     1 RES1   0.0000
     6 C6      26.0024   7.6024  62.8578   C.2       1 RES1   0.0000
     7 C7      25.1564   6.4863  62.5128   C.2       1 RES1   0.0000
     8 N8      24.1614   6.8943  61.6448   N.pl3     1 RES1   0.0000
     9 N9      24.4324   8.2884  61.4748   N.3       1 RES1   0.0000
    10 Br10    28.1585   8.8024  64.1867   Br        1 RES1   0.0000
    11 Br11    28.6935   5.7483  65.4236   Br        1 RES1   0.0000
    12 Br12    26.8524   3.3402  64.6696   Br        1 RES1   0.0000
    13 Br13    24.3874   3.7952  62.6658   Br        1 RES1   0.0000
    14 H1      25.9615   9.6807  62.2567   H         1 RES1   0.0000
    15 H2      24.5988   8.4651  60.4892   H         1 RES1   0.0000
    16 H3      23.4195   6.3400  61.2294   H         1 RES1   0.0000
@<TRIPOS>BOND
     1     1     2    2
     2     1     4    1
     3     1    11    1
     4     2     3    1
     5     2    12    1
     6     3     7    2
     7     3    13    1
     8     4     6    2
     9     4    10    1
    10     5     6    1
    11     5     9    1
    12     6     7    1
    13     7     8    1
    14     8     9    1
    15     5    14    1
    16     9    15    1
    17     8    16    1
@<TRIPOS>SUBSTRUCTURE
     1 RES1        1 GROUP             0 ****  ****    0  
@<TRIPOS>MOLECULE
6YLK:A:OY2301
    40    41     1     0     0
SMALL
NO_CHARGES
****
Generated from the CSD

@<TRIPOS>ATOM
     1 C1      22.0625   4.2291  64.3005   C.3       1 RES1   0.0000
     2 C2      24.6035   4.7361  62.8765   C.2       1 RES1   0.0000
     3 C3      25.3545   6.0061  62.7425   C.2       1 RES1   0.0000
     4 C4      23.4035   5.3981  60.9455   C.3       1 RES1   0.0000
     5 C5      25.6365   9.2572  62.6205   C.3       1 RES1   0.0000
     6 C6      30.2456   6.6101  65.5765   C.3       1 RES1   0.0000
     7 C7      28.3336   5.1791  64.8765   C.2       1 RES1   0.0000
     8 C8      27.0386   5.0551  64.1615   C.2       1 RES1   0.0000
     9 C9      26.3546   3.8511  64.2645   C.2       1 RES1   0.0000
    10 N10     23.3735   4.6961  62.2115   N.am      1 RES1   0.0000
    11 C11     22.2495   4.2091  62.7855   C.2       1 RES1   0.0000
    12 O12     21.3194   3.7811  62.1195   O.2       1 RES1   0.0000
    13 C13     26.5686   6.1251  63.4015   C.2       1 RES1   0.0000
    14 C14     25.6105   8.1882  61.5545   C.3       1 RES1   0.0000
    15 C15     21.4984   2.9031  64.7575   C.3       1 RES1   0.0000
    16 C16     23.4815   6.8671  61.3735   C.3       1 RES1   0.0000
    17 C17     25.1355   3.6891  63.6135   C.2       1 RES1   0.0000
    18 N18     24.8195   7.0272  61.9455   N.pl3     1 RES1   0.0000
    19 O19     29.0156   6.4531  64.8825   O.3       1 RES1   0.0000
    20 O20     28.7836   4.2251  65.4845   O.2       1 RES1   0.0000
    21 H1      27.1484   7.0439  63.3263   H         1 RES1   0.0000
    22 H2      26.6320   7.8649  61.3594   H         1 RES1   0.0000
    23 H3      25.1839   8.6113  60.6462   H         1 RES1   0.0000
    24 H4      26.0689   8.8494  63.5330   H         1 RES1   0.0000
    25 H5      26.2385  10.0973  62.2775   H         1 RES1   0.0000
    26 H6      24.6209   9.5958  62.8199   H         1 RES1   0.0000
    27 H7      30.9846   5.9240  65.1653   H         1 RES1   0.0000
    28 H8      30.5983   7.6341  65.4630   H         1 RES1   0.0000
    29 H9      30.0966   6.3925  66.6331   H         1 RES1   0.0000
    30 H10     22.1867   2.1035  64.4877   H         1 RES1   0.0000
    31 H11     21.3654   2.9183  65.8382   H         1 RES1   0.0000
    32 H12     20.5368   2.7323  64.2758   H         1 RES1   0.0000
    33 H13     26.7713   3.0354  64.8535   H         1 RES1   0.0000
    34 H14     22.7184   7.0895  62.1179   H         1 RES1   0.0000
    35 H15     23.3522   7.5231  60.5139   H         1 RES1   0.0000
    36 H16     22.5003   5.2051  60.3685   H         1 RES1   0.0000
    37 H17     24.2763   5.1134  60.3597   H         1 RES1   0.0000
    38 H18     24.6009   2.7429  63.6827   H         1 RES1   0.0000
    39 H19     21.3741   5.0286  64.5705   H         1 RES1   0.0000
    40 H20     23.0240   4.3997  64.7825   H         1 RES1   0.0000
@<TRIPOS>BOND
     1     1    11    1
     2     1    15    1
     3     2     3    2
     4     2    10    1
     5     2    17    1
     6     3    13    1
     7     3    18    1
     8     4    10    1
     9     4    16    1
    10     5    14    1
    11     6    19    1
    12     7     8    1
    13     7    19    1
    14     7    20    2
    15     8     9    1
    16     8    13    2
    17     9    17    2
    18    10    11   am
    19    11    12    2
    20    14    18    1
    21    16    18    1
    22    13    21    1
    23    14    22    1
    24    14    23    1
    25     5    24    1
    26     5    25    1
    27     5    26    1
    28     6    27    1
    29     6    28    1
    30     6    29    1
    31    15    30    1
    32    15    31    1
    33    15    32    1
    34     9    33    1
    35    16    34    1
    36    16    35    1
    37     4    36    1
    38     4    37    1
    39    17    38    1
    40     1    39    1
    41     1    40    1
@<TRIPOS>SUBSTRUCTURE
     1 RES1        1 GROUP             0 ****  ****    0  
@<TRIPOS>MOLECULE
3PXQ:A:2AN300
    34    36     1     0     0
SMALL
NO_CHARGES
****
Generated from the CSD

@<TRIPOS>ATOM
     1 C1      26.4293   7.1138  63.2046   C.2       1 RES1   0.0000
     2 C2      27.2223   7.2748  64.3976   C.2       1 RES1   0.0000
     3 C3      27.3833   6.2199  65.3106   C.2       1 RES1   0.0000
     4 C4      26.7583   4.9769  65.0776   C.2       1 RES1   0.0000
     5 C5      25.9593   4.7549  63.9216   C.2       1 RES1   0.0000
     6 C6      25.3374   3.4969  63.7136   C.2       1 RES1   0.0000
     7 C7      24.5414   3.2559  62.5686   C.2       1 RES1   0.0000
     8 C8      24.3544   4.2629  61.6046   C.2       1 RES1   0.0000
     9 N9      26.2713   8.0958  62.3576   N.pl3     1 RES1   0.0000
    10 S10     24.6584   6.7428  60.4546   S.o2      1 RES1   0.0000
    11 C11     24.9534   5.5429  61.7616   C.2       1 RES1   0.0000
    12 C12     25.7774   5.8309  62.9406   C.2       1 RES1   0.0000
    13 C13     27.1313   9.0008  61.9726   C.2       1 RES1   0.0000
    14 C14     28.5283   8.7328  61.7856   C.2       1 RES1   0.0000
    15 C15     29.3993   9.7688  61.3496   C.2       1 RES1   0.0000
    16 C16     28.8923  11.0678  61.0916   C.2       1 RES1   0.0000
    17 C17     27.5173  11.3397  61.2696   C.2       1 RES1   0.0000
    18 C18     26.6383  10.3088  61.7086   C.2       1 RES1   0.0000
    19 O19     25.9313   7.0948  59.8516   O.2       1 RES1   0.0000
    20 O20     24.0374   7.9508  60.9796   O.2       1 RES1   0.0000
    21 O21     23.6784   6.0939  59.3196   O.3       1 RES1   0.0000
    22 H1      26.8901   4.1705  65.7975   H         1 RES1   0.0000
    23 H2      28.9218   7.7357  61.9776   H         1 RES1   0.0000
    24 H3      30.4601   9.5638  61.2133   H         1 RES1   0.0000
    25 H4      27.1296  12.3378  61.0711   H         1 RES1   0.0000
    26 H5      24.0702   2.2836  62.4329   H         1 RES1   0.0000
    27 H6      25.4748   2.7037  64.4470   H         1 RES1   0.0000
    28 H7      25.5793  10.5237  61.8434   H         1 RES1   0.0000
    29 H8      29.5636  11.8568  60.7558   H         1 RES1   0.0000
    30 H9      23.7430   4.0596  60.7267   H         1 RES1   0.0000
    31 H10     25.3492   8.1656  61.9391   H         1 RES1   0.0000
    32 H11     22.8127   5.8411  59.7351   H         1 RES1   0.0000
    33 H12     27.7049   8.2310  64.5943   H         1 RES1   0.0000
    34 H13     27.9929   6.3620  66.2017   H         1 RES1   0.0000
@<TRIPOS>BOND
     1     1     2    2
     2     1     9    1
     3     1    12    1
     4     2     3    1
     5     3     4    2
     6     4     5    1
     7     5     6    1
     8     5    12    2
     9     6     7    2
    10     7     8    1
    11     8    11    2
    12     9    13    1
    13    10    11    1
    14    10    19    2
    15    10    20    2
    16    10    21    1
    17    11    12    1
    18    13    14    2
    19    13    18    1
    20    14    15    1
    21    15    16    2
    22    16    17    1
    23    17    18    2
    24     4    22    1
    25    14    23    1
    26    15    24    1
    27    17    25    1
    28     7    26    1
    29     6    27    1
    30    18    28    1
    31    16    29    1
    32     8    30    1
    33     9    31    1
    34    21    32    1
    35     2    33    1
    36     3    34    1
@<TRIPOS>SUBSTRUCTURE
     1 RES1        1 GROUP             0 ****  ****    0  
@<TRIPOS>MOLECULE
2UZE:A:C951297
    32    34     1     0     0
SMALL
NO_CHARGES
****
Generated from the CSD

@<TRIPOS>ATOM
     1 O1      31.3894  10.9538  64.0473   O.2       1 RES1   0.0000
     2 O2      32.2322  10.1118  65.8573   O.3       1 RES1   0.0000
     3 C3      30.4213   8.9068  64.7923   C.2       1 RES1   0.0000
     4 C4      30.4322   7.8618  65.7353   C.2       1 RES1   0.0000
     5 C5      29.5252   6.7899  65.6053   C.2       1 RES1   0.0000
     6 C6      28.5974   6.7989  64.5623   C.2       1 RES1   0.0000
     7 C7      28.5975   7.8468  63.6362   C.2       1 RES1   0.0000
     8 C8      29.5065   8.8828  63.7472   C.2       1 RES1   0.0000
     9 C9      27.6194   5.6799  64.3823   C.2       1 RES1   0.0000
    10 O10     26.6056   5.6799  63.4862   O.3       1 RES1   0.0000
    11 C11     27.6134   4.4889  65.0063   C.2       1 RES1   0.0000
    12 C12     26.5754   3.7609  64.5003   C.2       1 RES1   0.0000
    13 C13     25.9556   4.5099  63.5652   C.2       1 RES1   0.0000
    14 C14     24.7857   4.1239  62.7262   C.2       1 RES1   0.0000
    15 C15     24.3988   4.9399  61.7582   C.2       1 RES1   0.0000
    16 S16     24.9098   6.5289  61.6222   S.3       1 RES1   0.0000
    17 C17     24.0090   6.7679  60.2271   C.2       1 RES1   0.0000
    18 N18     23.9691   7.9278  59.5581   N.pl3     1 RES1   0.0000
    19 N19     23.3361   5.6499  59.8491   N.2       1 RES1   0.0000
    20 C20     31.3993  10.0598  64.8983   C.2       1 RES1   0.0000
    21 C21     23.5420   4.5919  60.6861   C.2       1 RES1   0.0000
    22 O22     23.0430   3.4729  60.5141   O.2       1 RES1   0.0000
    23 H1      23.4043   8.0104  58.7188   H         1 RES1   0.0000
    24 H2      24.5037   8.7240  59.8905   H         1 RES1   0.0000
    25 H3      29.5052   9.6850  63.0107   H         1 RES1   0.0000
    26 H4      27.8756   7.8469  62.8208   H         1 RES1   0.0000
    27 H5      24.2589   3.1879  62.9062   H         1 RES1   0.0000
    28 H6      28.3110   4.1636  65.7767   H         1 RES1   0.0000
    29 H7      29.5483   5.9621  66.3125   H         1 RES1   0.0000
    30 H8      26.2964   2.7516  64.7994   H         1 RES1   0.0000
    31 H9      32.0834  10.9427  66.3803   H         1 RES1   0.0000
    32 H10     31.1394   7.8811  66.5632   H         1 RES1   0.0000
@<TRIPOS>BOND
     1     1    20    2
     2     2    20    1
     3     3     4    2
     4     3     8    1
     5     3    20    1
     6     4     5    1
     7     5     6    2
     8     6     7    1
     9     6     9    1
    10     7     8    2
    11     9    10    1
    12     9    11    2
    13    10    13    1
    14    11    12    1
    15    12    13    2
    16    13    14    1
    17    14    15    2
    18    15    16    1
    19    15    21    1
    20    16    17    1
    21    17    18    1
    22    17    19    2
    23    19    21    1
    24    21    22    2
    25    18    23    1
    26    18    24    1
    27     8    25    1
    28     7    26    1
    29    14    27    1
    30    11    28    1
    31     5    29    1
    32    12    30    1
    33     2    31    1
    34     4    32    1
@<TRIPOS>SUBSTRUCTURE
     1 RES1        1 GROUP             0 ****  ****    0  
@<TRIPOS>MOLECULE
4FKG:A:4CK300
    31    33     1     0     0
SMALL
NO_CHARGES
****
Generated from the CSD

@<TRIPOS>ATOM
     1 N1      27.4770   3.5090  65.0509   N.2       1 RES1   0.0000
     2 N2      28.4761   4.0920  65.5279   N.2       1 RES1   0.0000
     3 N3      29.4301   6.2311  65.4659   N.2       1 RES1   0.0000
     4 O4      34.1121  10.6711  68.4419   O.3       1 RES1   0.0000
     5 O5      29.0081   7.8981  63.9748   O.2       1 RES1   0.0000
     6 O6      34.5641  11.4941  66.4449   O.2       1 RES1   0.0000
     7 C7      32.5201   9.9531  65.2309   C.2       1 RES1   0.0000
     8 C8      32.1971   8.9031  67.3919   C.2       1 RES1   0.0000
     9 C9      31.5181   9.1491  64.6758   C.2       1 RES1   0.0000
    10 C10     31.1841   8.1121  66.8459   C.2       1 RES1   0.0000
    11 C11     27.3480   5.5831  64.3618   C.2       1 RES1   0.0000
    12 C12     24.9660   4.5560  62.3698   C.3       1 RES1   0.0000
    13 C13     24.2680   4.9481  63.6758   C.3       1 RES1   0.0000
    14 C14     33.9451  10.7221  67.2039   C.2       1 RES1   0.0000
    15 C15     29.6941   7.4081  64.8728   C.2       1 RES1   0.0000
    16 C16     32.8611   9.8241  66.5829   C.2       1 RES1   0.0000
    17 C17     30.8391   8.2261  65.4869   C.2       1 RES1   0.0000
    18 C18     28.4481   5.3751  65.1279   C.2       1 RES1   0.0000
    19 C19     26.7490   4.3830  64.3308   C.2       1 RES1   0.0000
    20 C20     25.4220   3.9330  63.6958   C.3       1 RES1   0.0000
    21 H1      25.1422   2.8931  63.8575   H         1 RES1   0.0000
    22 H2      25.6051   5.2738  61.8577   H         1 RES1   0.0000
    23 H3      24.4420   3.9472  61.6344   H         1 RES1   0.0000
    24 H4      23.2485   4.6174  63.8689   H         1 RES1   0.0000
    25 H5      24.4116   5.9440  64.0922   H         1 RES1   0.0000
    26 H6      32.4665   8.8013  68.4421   H         1 RES1   0.0000
    27 H7      33.9032  11.5561  68.8408   H         1 RES1   0.0000
    28 H8      30.6560   7.4000  67.4783   H         1 RES1   0.0000
    29 H9      33.0369  10.6823  64.6087   H         1 RES1   0.0000
    30 H10     31.2664   9.2390  63.6201   H         1 RES1   0.0000
    31 H11     27.0265   6.5074  63.8840   H         1 RES1   0.0000
@<TRIPOS>BOND
     1     1     2    2
     2     1    19    1
     3     2    18    1
     4     3    15    1
     5     3    18    2
     6     4    14    1
     7     5    15    2
     8     6    14    2
     9     7     9    2
    10     7    16    1
    11     8    10    1
    12     8    16    2
    13     9    17    1
    14    10    17    2
    15    11    18    1
    16    11    19    2
    17    12    13    1
    18    12    20    1
    19    13    20    1
    20    14    16    1
    21    15    17    1
    22    19    20    1
    23    20    21    1
    24    12    22    1
    25    12    23    1
    26    13    24    1
    27    13    25    1
    28     8    26    1
    29     4    27    1
    30    10    28    1
    31     7    29    1
    32     9    30    1
    33    11    31    1
@<TRIPOS>SUBSTRUCTURE
     1 RES1        1 GROUP             0 ****  ****    0  
@<TRIPOS>MOLECULE
4NJ3:A:2KD301
    57    60     1     0     0
SMALL
NO_CHARGES
****
Generated from the CSD

@<TRIPOS>ATOM
     1 N1      23.0350   3.6930  60.3925   N.2       1 RES1   0.0000
     2 C2      22.2870   4.7960  60.2885   C.2       1 RES1   0.0000
     3 C3      21.0740   4.7600  59.5985   C.2       1 RES1   0.0000
     4 C4      20.6420   3.5690  59.0045   C.2       1 RES1   0.0000
     5 C5      21.4470   2.4150  59.1365   C.2       1 RES1   0.0000
     6 C6      22.6540   2.5230  59.8595   C.2       1 RES1   0.0000
     7 C7      21.0990   1.1610  58.6076   C.2       1 RES1   0.0000
     8 C8      21.9320   0.0270  58.7826   C.2       1 RES1   0.0000
     9 C9      23.1400   0.1790  59.4865   C.2       1 RES1   0.0000
    10 C10     23.4870   1.4080  60.0195   C.2       1 RES1   0.0000
    11 C11     22.8130   6.0651  60.8835   C.2       1 RES1   0.0000
    12 C12     19.3130   3.5830  58.2776   C.2       1 RES1   0.0000
    13 C13     21.5670  -1.3060  58.2346   C.2       1 RES1   0.0000
    14 O14     22.0150   6.9311  61.2275   O.2       1 RES1   0.0000
    15 N15     24.1470   6.1841  61.0105   N.am      1 RES1   0.0000
    16 C16     24.7720   7.3671  61.5635   C.3       1 RES1   0.0000
    17 C17     24.7070   7.3271  63.1274   C.3       1 RES1   0.0000
    18 C18     25.6030   6.1851  63.6804   C.2       1 RES1   0.0000
    19 C19     26.2080   7.4221  61.1005   C.2       1 RES1   0.0000
    20 O20     26.6620   6.5611  60.3555   O.2       1 RES1   0.0000
    21 O21     26.9120   8.4721  61.5455   O.3       1 RES1   0.0000
    22 C22     28.2840   8.5241  61.0855   C.3       1 RES1   0.0000
    23 O23     18.3000   4.0360  58.8745   O.2       1 RES1   0.0000
    24 O24     19.2300   3.1240  57.1066   O.3       1 RES1   0.0000
    25 C25     20.9610  -1.4160  56.9726   C.2       1 RES1   0.0000
    26 C26     20.6290  -2.6780  56.4486   C.2       1 RES1   0.0000
    27 C27     20.9070  -3.8440  57.1816   C.2       1 RES1   0.0000
    28 C28     21.5150  -3.7410  58.4286   C.2       1 RES1   0.0000
    29 C29     21.8440  -2.4800  58.9525   C.2       1 RES1   0.0000
    30 C30     25.1340   4.8520  63.6794   C.2       1 RES1   0.0000
    31 C31     25.9580   3.8100  64.1604   C.2       1 RES1   0.0000
    32 C32     27.2080   4.1010  64.7344   C.2       1 RES1   0.0000
    33 C33     27.6300   5.4410  64.8334   C.2       1 RES1   0.0000
    34 C34     26.8680   6.4691  64.2514   C.2       1 RES1   0.0000
    35 Cl35    19.8930  -2.7940  54.8686   Cl        1 RES1   0.0000
    36 O36     28.0270   3.0450  65.1694   O.3       1 RES1   0.0000
    37 H1      24.1355   4.6275  63.3072   H         1 RES1   0.0000
    38 H2      25.6233   2.7764  64.0862   H         1 RES1   0.0000
    39 H3      27.2518   7.4882  64.2394   H         1 RES1   0.0000
    40 H4      19.4930   2.1665  57.1070   H         1 RES1   0.0000
    41 H5      28.5505   5.6818  65.3631   H         1 RES1   0.0000
    42 H6      28.3005   8.5742  59.9978   H         1 RES1   0.0000
    43 H7      28.7716   9.4066  61.4970   H         1 RES1   0.0000
    44 H8      28.8117   7.6306  61.4157   H         1 RES1   0.0000
    45 H9      28.2404   2.4534  64.4009   H         1 RES1   0.0000
    46 H10     20.7466  -0.5176  56.3956   H         1 RES1   0.0000
    47 H11     20.6484  -4.8212  56.7765   H         1 RES1   0.0000
    48 H12     21.7366  -4.6409  59.0004   H         1 RES1   0.0000
    49 H13     22.3206  -2.4122  59.9293   H         1 RES1   0.0000
    50 H14     24.7372   5.4160  60.7074   H         1 RES1   0.0000
    51 H15     20.4639   5.6589  59.5225   H         1 RES1   0.0000
    52 H16     24.2460   8.2509  61.2055   H         1 RES1   0.0000
    53 H17     23.6774   7.1576  63.4390   H         1 RES1   0.0000
    54 H18     25.0544   8.2796  63.5249   H         1 RES1   0.0000
    55 H19     20.1688   1.0575  58.0508   H         1 RES1   0.0000
    56 H20     23.8051  -0.6740  59.6126   H         1 RES1   0.0000
    57 H21     24.4205   1.5099  60.5710   H         1 RES1   0.0000
@<TRIPOS>BOND
     1     1     2    2
     2     1     6    1
     3     2     3    1
     4     2    11    1
     5     3     4    2
     6     4     5    1
     7     4    12    1
     8     5     6    2
     9     5     7    1
    10     6    10    1
    11     7     8    2
    12     8     9    1
    13     8    13    1
    14     9    10    2
    15    11    14    2
    16    11    15   am
    17    12    23    2
    18    12    24    1
    19    13    25    2
    20    13    29    1
    21    15    16    1
    22    16    17    1
    23    16    19    1
    24    17    18    1
    25    18    30    2
    26    18    34    1
    27    19    20    2
    28    19    21    1
    29    21    22    1
    30    25    26    1
    31    26    27    2
    32    26    35    1
    33    27    28    1
    34    28    29    2
    35    30    31    1
    36    31    32    2
    37    32    33    1
    38    32    36    1
    39    33    34    2
    40    30    37    1
    41    31    38    1
    42    34    39    1
    43    24    40    1
    44    33    41    1
    45    22    42    1
    46    22    43    1
    47    22    44    1
    48    36    45    1
    49    25    46    1
    50    27    47    1
    51    28    48    1
    52    29    49    1
    53    15    50    1
    54     3    51    1
    55    16    52    1
    56    17    53    1
    57    17    54    1
    58     7    55    1
    59     9    56    1
    60    10    57    1
@<TRIPOS>SUBSTRUCTURE
     1 RES1        1 GROUP             0 ****  ****    0  
@<TRIPOS>MOLECULE
4D1Z:A:WG81296
    29    31     1     0     0
SMALL
NO_CHARGES
****
Generated from the CSD

@<TRIPOS>ATOM
     1 C1      27.1510   7.4969  62.7843   C.2       1 RES1   0.0000
     2 C2      28.2470   8.2509  63.1882   C.2       1 RES1   0.0000
     3 C3      29.1370   7.7069  64.0912   C.2       1 RES1   0.0000
     4 C4      30.2490   8.4209  64.5152   C.2       1 RES1   0.0000
     5 C5      31.1230   7.8539  65.4312   C.2       1 RES1   0.0000
     6 C6      30.8870   6.5729  65.9032   C.2       1 RES1   0.0000
     7 C7      29.7700   5.8689  65.4522   C.2       1 RES1   0.0000
     8 O8      29.4160   4.6219  65.8342   O.3       1 RES1   0.0000
     9 C9      28.9000   6.4249  64.5552   C.2       1 RES1   0.0000
    10 N10     27.8410   5.7059  64.1642   N.2       1 RES1   0.0000
    11 C11     26.9650   6.2079  63.2822   C.2       1 RES1   0.0000
    12 C12     25.8860   5.5069  62.9143   C.2       1 RES1   0.0000
    13 N13     24.8910   6.0709  62.2123   N.2       1 RES1   0.0000
    14 S14     25.3960   3.8920  63.4382   S.3       1 RES1   0.0000
    15 C15     24.2880   3.7010  62.0913   C.3       1 RES1   0.0000
    16 C16     23.7290   5.1039  62.0783   C.3       1 RES1   0.0000
    17 C17     22.9220   5.3389  60.9373   C.2       1 RES1   0.0000
    18 O18     22.2280   4.3990  60.4773   O.3       1 RES1   0.0000
    19 O19     22.8920   6.5049  60.4753   O.2       1 RES1   0.0000
    20 H1      26.4358   7.9142  62.0771   H         1 RES1   0.0000
    21 H2      23.5216   2.9534  62.2905   H         1 RES1   0.0000
    22 H3      24.8039   3.4540  61.1646   H         1 RES1   0.0000
    23 H4      23.0991   5.2181  62.9593   H         1 RES1   0.0000
    24 H5      21.5910   4.0871  61.1722   H         1 RES1   0.0000
    25 H6      31.9908   8.4132  65.7777   H         1 RES1   0.0000
    26 H7      31.5684   6.1187  66.6211   H         1 RES1   0.0000
    27 H8      30.4348   9.4225  64.1303   H         1 RES1   0.0000
    28 H9      28.4007   9.2558  62.7977   H         1 RES1   0.0000
    29 H10     29.2624   4.6073  66.8151   H         1 RES1   0.0000
@<TRIPOS>BOND
     1     1     2    2
     2     1    11    1
     3     2     3    1
     4     3     4    2
     5     3     9    1
     6     4     5    1
     7     5     6    2
     8     6     7    1
     9     7     8    1
    10     7     9    2
    11     9    10    1
    12    10    11    2
    13    11    12    1
    14    12    13    2
    15    12    14    1
    16    13    16    1
    17    14    15    1
    18    15    16    1
    19    16    17    1
    20    17    18    1
    21    17    19    2
    22     1    20    1
    23    15    21    1
    24    15    22    1
    25    16    23    1
    26    18    24    1
    27     5    25    1
    28     6    26    1
    29     4    27    1
    30     2    28    1
    31     8    29    1
@<TRIPOS>SUBSTRUCTURE
     1 RES1        1 GROUP             0 ****  ****    0  
@<TRIPOS>MOLECULE
4FKQ:A:42K301
    36    39     1     0     0
SMALL
NO_CHARGES
****
Generated from the CSD

@<TRIPOS>ATOM
     1 N1      26.7716   3.5049  64.7261   N.am      1 RES1   0.0000
     2 N2      24.2216   6.5209  60.9810   N.2       1 RES1   0.0000
     3 N3      24.9676   7.5128  61.1140   N.2       1 RES1   0.0000
     4 N4      25.8776   7.3328  61.9600   N.pl3     1 RES1   0.0000
     5 N5      28.3446   6.6408  64.3741   N.2       1 RES1   0.0000
     6 N6      29.3856   6.6598  65.0711   N.pl3     1 RES1   0.0000
     7 N7      33.0565  12.1217  63.8720   N.pl3     1 RES1   0.0000
     8 O8      28.6016   4.2049  65.9071   O.2       1 RES1   0.0000
     9 O9      33.7645  11.3947  66.2551   O.2       1 RES1   0.0000
    10 O10     34.6485  10.2508  64.3171   O.2       1 RES1   0.0000
    11 C11     30.2536   8.6208  63.9881   C.2       1 RES1   0.0000
    12 C12     31.2905   7.7428  65.9991   C.2       1 RES1   0.0000
    13 C13     31.2145   9.6388  63.9401   C.2       1 RES1   0.0000
    14 C14     32.2465   8.7578  65.9581   C.2       1 RES1   0.0000
    15 C15     24.1626   4.2919  62.1380   C.2       1 RES1   0.0000
    16 C16     24.8476   3.5329  63.1150   C.2       1 RES1   0.0000
    17 C17     30.2696   7.6858  65.0401   C.2       1 RES1   0.0000
    18 C18     32.2045   9.6968  64.9241   C.2       1 RES1   0.0000
    19 C19     27.6706   4.4159  65.1081   C.2       1 RES1   0.0000
    20 C20     27.4866   5.5869  64.3741   C.2       1 RES1   0.0000
    21 C21     24.6016   5.5859  61.8690   C.2       1 RES1   0.0000
    22 C22     25.9596   4.0619  63.8020   C.2       1 RES1   0.0000
    23 C23     25.7446   6.0989  62.4940   C.2       1 RES1   0.0000
    24 C24     26.3986   5.3669  63.5160   C.2       1 RES1   0.0000
    25 S25     33.4495  10.9158  64.8781   S.o2      1 RES1   0.0000
    26 H1      24.5104   2.5223  63.3407   H         1 RES1   0.0000
    27 H2      23.3092   3.8731  61.6068   H         1 RES1   0.0000
    28 H3      33.0180   8.8178  66.7244   H         1 RES1   0.0000
    29 H4      26.5973   8.0058  62.2035   H         1 RES1   0.0000
    30 H5      29.5745   5.8736  65.6846   H         1 RES1   0.0000
    31 H6      29.4937   8.5527  63.2110   H         1 RES1   0.0000
    32 H7      31.3376   6.9882  66.7828   H         1 RES1   0.0000
    33 H8      32.8213  11.9200  62.9054   H         1 RES1   0.0000
    34 H9      33.0453  13.0795  64.2078   H         1 RES1   0.0000
    35 H10     26.7092   2.5529  65.0726   H         1 RES1   0.0000
    36 H11     31.1901  10.3793  63.1420   H         1 RES1   0.0000
@<TRIPOS>BOND
     1     1    19   am
     2     1    22    1
     3     2     3    2
     4     2    21    1
     5     3     4    1
     6     4    23    1
     7     5     6    1
     8     5    20    2
     9     6    17    1
    10     7    25    1
    11     8    19    2
    12     9    25    2
    13    10    25    2
    14    11    13    2
    15    11    17    1
    16    12    14    1
    17    12    17    2
    18    13    18    1
    19    14    18    2
    20    15    16    2
    21    15    21    1
    22    16    22    1
    23    18    25    1
    24    19    20    1
    25    20    24    1
    26    21    23    2
    27    22    24    2
    28    23    24    1
    29    16    26    1
    30    15    27    1
    31    14    28    1
    32     4    29    1
    33     6    30    1
    34    11    31    1
    35    12    32    1
    36     7    33    1
    37     7    34    1
    38     1    35    1
    39    13    36    1
@<TRIPOS>SUBSTRUCTURE
     1 RES1        1 GROUP             0 ****  ****    0  
@<TRIPOS>MOLECULE
4FKS:A:46K301
    42    45     1     0     0
SMALL
NO_CHARGES
****
Generated from the CSD

@<TRIPOS>ATOM
     1 C1      31.7258  12.5474  66.7182   C.3       1 RES1   0.0000
     2 N2      32.9878  12.3164  64.5232   N.am      1 RES1   0.0000
     3 O3      31.5608  14.0805  64.8642   O.2       1 RES1   0.0000
     4 S4      33.7609  10.8924  64.9392   S.o2      1 RES1   0.0000
     5 C5      32.0498  13.0534  65.3342   C.2       1 RES1   0.0000
     6 N6      29.5157   6.8112  65.1002   N.pl3     1 RES1   0.0000
     7 O7      34.3819  10.9574  66.2282   O.2       1 RES1   0.0000
     8 S8      26.1217   7.7843  61.8132   S.3       1 RES1   0.0000
     9 C9      32.4898   9.8093  65.0372   C.2       1 RES1   0.0000
    10 N10     26.7507   3.6151  64.6902   N.am      1 RES1   0.0000
    11 O11     34.5549  10.4333  63.8462   O.2       1 RES1   0.0000
    12 C12     32.3718   8.9443  66.1602   C.2       1 RES1   0.0000
    13 N13     23.9996   6.5132  60.9072   N.2       1 RES1   0.0000
    14 O14     28.6307   4.3221  65.8922   O.2       1 RES1   0.0000
    15 C15     31.3888   7.9623  66.1832   C.2       1 RES1   0.0000
    16 C16     30.4868   7.8323  65.1192   C.2       1 RES1   0.0000
    17 C17     28.4637   6.7082  64.2322   C.2       1 RES1   0.0000
    18 C18     27.6237   5.6922  64.2302   C.2       1 RES1   0.0000
    19 C19     27.7577   4.4851  65.0452   C.2       1 RES1   0.0000
    20 C20     25.9347   4.2051  63.7002   C.2       1 RES1   0.0000
    21 C21     24.8576   3.6381  63.0782   C.2       1 RES1   0.0000
    22 C22     24.1436   4.4021  62.1282   C.2       1 RES1   0.0000
    23 C23     24.6116   5.6612  61.8552   C.2       1 RES1   0.0000
    24 C24     24.6966   7.5993  60.8102   C.2       1 RES1   0.0000
    25 C25     25.7616   6.2222  62.4522   C.2       1 RES1   0.0000
    26 C26     26.4427   5.5042  63.4002   C.2       1 RES1   0.0000
    27 C27     30.6198   8.6843  63.9922   C.2       1 RES1   0.0000
    28 C28     31.5968   9.6593  63.9912   C.2       1 RES1   0.0000
    29 H1      26.6154   2.6884  65.0816   H         1 RES1   0.0000
    30 H2      29.6058   6.0807  65.7991   H         1 RES1   0.0000
    31 H3      24.5559   2.6178  63.3103   H         1 RES1   0.0000
    32 H4      31.6671  10.3330  63.1385   H         1 RES1   0.0000
    33 H5      29.9570   8.5699  63.1358   H         1 RES1   0.0000
    34 H6      24.4023   8.3855  60.1165   H         1 RES1   0.0000
    35 H7      33.0528   9.0518  67.0032   H         1 RES1   0.0000
    36 H8      31.3190   7.2881  67.0355   H         1 RES1   0.0000
    37 H9      28.3124   7.5056  63.5062   H         1 RES1   0.0000
    38 H10     32.6362  12.5141  67.3149   H         1 RES1   0.0000
    39 H11     31.0068  13.2156  67.1899   H         1 RES1   0.0000
    40 H12     31.3005  11.5473  66.6487   H         1 RES1   0.0000
    41 H13     23.2578   4.0069  61.6331   H         1 RES1   0.0000
    42 H14     33.2001  12.7005  63.6080   H         1 RES1   0.0000
@<TRIPOS>BOND
     1     1     5    1
     2     2     4    1
     3     2     5   am
     4     3     5    2
     5     4     7    2
     6     4     9    1
     7     4    11    2
     8     6    16    1
     9     6    17    1
    10     8    24    1
    11     8    25    1
    12     9    12    2
    13     9    28    1
    14    10    19   am
    15    10    20    1
    16    12    15    1
    17    13    23    1
    18    13    24    2
    19    14    19    2
    20    15    16    2
    21    16    27    1
    22    17    18    2
    23    18    19    1
    24    18    26    1
    25    20    21    1
    26    20    26    2
    27    21    22    2
    28    22    23    1
    29    23    25    2
    30    25    26    1
    31    27    28    2
    32    10    29    1
    33     6    30    1
    34    21    31    1
    35    28    32    1
    36    27    33    1
    37    24    34    1
    38    12    35    1
    39    15    36    1
    40    17    37    1
    41     1    38    1
    42     1    39    1
    43     1    40    1
    44    22    41    1
    45     2    42    1
@<TRIPOS>SUBSTRUCTURE
     1 RES1        1 GROUP             0 ****  ****    0  
@<TRIPOS>MOLECULE
4FKR:A:45K301
    39    43     1     0     0
SMALL
NO_CHARGES
****
Generated from the CSD

@<TRIPOS>ATOM
     1 N1      24.3176   7.0472  61.0489   N.2       1 RES1   0.0000
     2 N2      29.6005   6.7452  65.3209   N.pl3     1 RES1   0.0000
     3 N3      26.7935   3.7191  64.6159   N.am      1 RES1   0.0000
     4 O4      28.6225   4.2571  65.8689   O.2       1 RES1   0.0000
     5 O5      34.7084  10.2663  63.8659   O.2       1 RES1   0.0000
     6 O6      34.1204  12.6973  64.2389   O.2       1 RES1   0.0000
     7 C7      28.5135   6.8552  64.5459   C.2       1 RES1   0.0000
     8 C8      31.2324   7.7142  66.7338   C.2       1 RES1   0.0000
     9 C9      32.1784   8.7112  66.9988   C.2       1 RES1   0.0000
    10 C10     24.2976   4.8131  62.0749   C.2       1 RES1   0.0000
    11 C11     24.9106   3.9671  62.9999   C.2       1 RES1   0.0000
    12 C12     24.9716   8.2222  61.0099   C.2       1 RES1   0.0000
    13 C13     30.7645   8.7132  64.6009   C.2       1 RES1   0.0000
    14 C14     33.4574  10.8843  66.1928   C.3       1 RES1   0.0000
    15 C15     32.0524  10.9213  63.9189   C.3       1 RES1   0.0000
    16 S16     26.2875   8.1062  62.0749   S.3       1 RES1   0.0000
    17 C17     30.4745   7.7392  65.5559   C.2       1 RES1   0.0000
    18 C18     32.4354   9.7233  66.0678   C.2       1 RES1   0.0000
    19 C19     31.6804   9.7463  64.8609   C.2       1 RES1   0.0000
    20 C20     27.7215   4.5631  65.0789   C.2       1 RES1   0.0000
    21 C21     27.6665   5.7562  64.3599   C.2       1 RES1   0.0000
    22 C22     24.7906   6.1042  61.8779   C.2       1 RES1   0.0000
    23 C23     26.0295   4.3791  63.7299   C.2       1 RES1   0.0000
    24 C24     25.9455   6.5122  62.5919   C.2       1 RES1   0.0000
    25 C25     26.5655   5.6592  63.5099   C.2       1 RES1   0.0000
    26 S26     33.7424  11.2563  64.4319   S.o2      1 RES1   0.0000
    27 H1      28.2879   7.8027  64.0589   H         1 RES1   0.0000
    28 H2      31.0837   6.9093  67.4520   H         1 RES1   0.0000
    29 H3      32.7217   8.6989  67.9425   H         1 RES1   0.0000
    30 H4      23.4354   4.4665  61.5072   H         1 RES1   0.0000
    31 H5      24.5097   2.9667  63.1562   H         1 RES1   0.0000
    32 H6      24.7054   9.0884  60.4060   H         1 RES1   0.0000
    33 H7      29.7767   5.8481  65.7618   H         1 RES1   0.0000
    34 H8      26.6850   2.7471  64.8872   H         1 RES1   0.0000
    35 H9      34.3718  10.5646  66.6904   H         1 RES1   0.0000
    36 H10     33.0355  11.7375  66.7219   H         1 RES1   0.0000
    37 H11     31.4073  11.7834  64.0819   H         1 RES1   0.0000
    38 H12     32.0042  10.6246  62.8722   H         1 RES1   0.0000
    39 H13     30.2698   8.6721  63.6316   H         1 RES1   0.0000
@<TRIPOS>BOND
     1     1    12    2
     2     1    22    1
     3     2     7    1
     4     2    17    1
     5     3    20   am
     6     3    23    1
     7     4    20    2
     8     5    26    2
     9     6    26    2
    10     7    21    2
    11     8     9    2
    12     8    17    1
    13     9    18    1
    14    10    11    1
    15    10    22    2
    16    11    23    2
    17    12    16    1
    18    13    17    2
    19    13    19    1
    20    14    18    1
    21    14    26    1
    22    15    19    1
    23    15    26    1
    24    16    24    1
    25    18    19    2
    26    20    21    1
    27    21    25    1
    28    22    24    1
    29    23    25    1
    30    24    25    2
    31     7    27    1
    32     8    28    1
    33     9    29    1
    34    10    30    1
    35    11    31    1
    36    12    32    1
    37     2    33    1
    38     3    34    1
    39    14    35    1
    40    14    36    1
    41    15    37    1
    42    15    38    1
    43    13    39    1
@<TRIPOS>SUBSTRUCTURE
     1 RES1        1 GROUP             0 ****  ****    0  
@<TRIPOS>MOLECULE
6JGM:A:AQG900
    61    64     1     0     0
SMALL
NO_CHARGES
****
Generated from the CSD

@<TRIPOS>ATOM
     1 C1      27.4664   4.4290  64.5842   C.2       1 RES1   0.0000
     2 C2      26.7274   5.2950  63.8252   C.2       1 RES1   0.0000
     3 C3      27.1634   6.5960  63.6642   C.2       1 RES1   0.0000
     4 C4      25.7544   3.3670  63.8122   C.2       1 RES1   0.0000
     5 N5      28.2994   6.9790  64.2722   N.2       1 RES1   0.0000
     6 N6      30.1934   6.3850  65.6133   N.pl3     1 RES1   0.0000
     7 N7      28.5944   4.8430  65.1503   N.2       1 RES1   0.0000
     8 C8      29.0244   6.1010  65.0112   C.2       1 RES1   0.0000
     9 C9      34.5155  13.9310  64.4762   C.3       1 RES1   0.0000
    10 C10     31.2804  13.3180  63.7782   C.3       1 RES1   0.0000
    11 C11     30.6604   8.4640  64.4742   C.2       1 RES1   0.0000
    12 C12     32.0465   7.6960  66.3053   C.2       1 RES1   0.0000
    13 C13     31.4344   9.5960  64.3632   C.2       1 RES1   0.0000
    14 C14     32.8205   8.8500  66.1923   C.2       1 RES1   0.0000
    15 C15     25.4754  10.7980  58.9440   C.3       1 RES1   0.0000
    16 C16     24.9744   9.3950  59.2540   C.3       1 RES1   0.0000
    17 C17     25.6394  11.6080  60.2331   C.3       1 RES1   0.0000
    18 C18     33.8505  13.2970  65.6863   C.3       1 RES1   0.0000
    19 C19     31.4984  12.7470  65.1583   C.3       1 RES1   0.0000
    20 C20     25.9154   8.6980  60.2451   C.3       1 RES1   0.0000
    21 C21     26.4444  10.8980  61.3271   C.3       1 RES1   0.0000
    22 C22     26.8744   8.7920  62.5952   C.3       1 RES1   0.0000
    23 C23     33.3195  11.0270  65.0262   C.2       1 RES1   0.0000
    24 C24     30.9454   7.4950  65.4433   C.2       1 RES1   0.0000
    25 C25     32.5005   9.7990  65.2293   C.2       1 RES1   0.0000
    26 C26     25.9564   9.4710  61.5751   C.3       1 RES1   0.0000
    27 N27     25.6624   4.6240  63.3612   N.2       1 RES1   0.0000
    28 N28     26.8644   3.2510  64.5702   N.pl3     1 RES1   0.0000
    29 N29     32.8835  12.2740  65.2773   N.am      1 RES1   0.0000
    30 O30     26.4244   7.4570  62.9022   O.3       1 RES1   0.0000
    31 O31     34.4385  10.7960  64.5662   O.2       1 RES1   0.0000
    32 H1      27.1807   2.4112  65.0444   H         1 RES1   0.0000
    33 H2      29.8168   8.3203  63.8007   H         1 RES1   0.0000
    34 H3      25.0468   2.5665  63.6011   H         1 RES1   0.0000
    35 H4      30.5484   5.6920  66.2644   H         1 RES1   0.0000
    36 H5      31.4665  12.5464  63.0326   H         1 RES1   0.0000
    37 H6      30.2535  13.6692  63.6887   H         1 RES1   0.0000
    38 H7      31.9640  14.1504  63.6176   H         1 RES1   0.0000
    39 H8      32.2909   6.9487  67.0588   H         1 RES1   0.0000
    40 H9      31.2105  10.3342  63.5946   H         1 RES1   0.0000
    41 H10     33.6706   9.0066  66.8547   H         1 RES1   0.0000
    42 H11     24.7585  11.2990  58.2952   H         1 RES1   0.0000
    43 H12     26.4376  10.7310  58.4384   H         1 RES1   0.0000
    44 H13     24.9324   8.8171  58.3320   H         1 RES1   0.0000
    45 H14     23.9779   9.4577  59.6888   H         1 RES1   0.0000
    46 H15     33.7577  14.3974  63.8484   H         1 RES1   0.0000
    47 H16     35.2275  14.6856  64.8071   H         1 RES1   0.0000
    48 H17     35.0379  13.1644  63.9058   H         1 RES1   0.0000
    49 H18     24.6479  11.8264  60.6269   H         1 RES1   0.0000
    50 H19     26.1460  12.5402  59.9878   H         1 RES1   0.0000
    51 H20     26.8841   9.3818  63.5106   H         1 RES1   0.0000
    52 H21     27.8822   8.7407  62.1857   H         1 RES1   0.0000
    53 H22     26.9179   8.6581  59.8216   H         1 RES1   0.0000
    54 H23     25.5583   7.6857  60.4286   H         1 RES1   0.0000
    55 H24     24.9487   9.5130  61.9858   H         1 RES1   0.0000
    56 H25     26.3529  11.4648  62.2524   H         1 RES1   0.0000
    57 H26     27.4900  10.8626  61.0249   H         1 RES1   0.0000
    58 H27     33.3336  14.0692  66.2542   H         1 RES1   0.0000
    59 H28     34.6137  12.8361  66.3116   H         1 RES1   0.0000
    60 H29     30.8151  11.9144  65.3191   H         1 RES1   0.0000
    61 H30     31.3126  13.5184  65.9042   H         1 RES1   0.0000
@<TRIPOS>BOND
     1     1     2    2
     2     1     7    1
     3     1    28    1
     4     2     3    1
     5     2    27    1
     6     3     5    2
     7     3    30    1
     8     4    27    2
     9     4    28    1
    10     5     8    1
    11     6     8    1
    12     6    24    1
    13     7     8    2
    14     9    18    1
    15    10    19    1
    16    11    13    2
    17    11    24    1
    18    12    14    1
    19    12    24    2
    20    13    25    1
    21    14    25    2
    22    15    16    1
    23    15    17    1
    24    16    20    1
    25    17    21    1
    26    18    29    1
    27    19    29    1
    28    20    26    1
    29    21    26    1
    30    22    26    1
    31    22    30    1
    32    23    25    1
    33    23    29   am
    34    23    31    2
    35    28    32    1
    36    11    33    1
    37     4    34    1
    38     6    35    1
    39    10    36    1
    40    10    37    1
    41    10    38    1
    42    12    39    1
    43    13    40    1
    44    14    41    1
    45    15    42    1
    46    15    43    1
    47    16    44    1
    48    16    45    1
    49     9    46    1
    50     9    47    1
    51     9    48    1
    52    17    49    1
    53    17    50    1
    54    22    51    1
    55    22    52    1
    56    20    53    1
    57    20    54    1
    58    26    55    1
    59    21    56    1
    60    21    57    1
    61    18    58    1
    62    18    59    1
    63    19    60    1
    64    19    61    1
@<TRIPOS>SUBSTRUCTURE
     1 RES1        1 GROUP             0 ****  ****    0  
@<TRIPOS>MOLECULE
4FKV:A:61K301
    51    54     1     0     0
SMALL
NO_CHARGES
****
Generated from the CSD

@<TRIPOS>ATOM
     1 N1      26.7301  11.4796  61.4672   N.pl3     1 RES1   0.0000
     2 S2      33.5502  10.8606  64.7302   S.o2      1 RES1   0.0000
     3 N3      25.4161  11.7516  59.7853   N.2       1 RES1   0.0000
     4 N4      24.3771   7.8437  60.5963   N.am      1 RES1   0.0000
     5 N5      26.7761   3.5709  64.6662   N.am      1 RES1   0.0000
     6 N6      28.3812   6.6958  64.4312   N.2       1 RES1   0.0000
     7 N7      33.0282  12.1436  63.8682   N.pl3     1 RES1   0.0000
     8 N8      29.4372   6.6898  65.1001   N.pl3     1 RES1   0.0000
     9 O9      22.6071   6.4418  60.8073   O.2       1 RES1   0.0000
    10 O10     28.6072   4.1839  65.8731   O.2       1 RES1   0.0000
    11 O11     33.9592  11.2376  66.1171   O.2       1 RES1   0.0000
    12 O12     34.7012  10.1986  64.0462   O.2       1 RES1   0.0000
    13 C13     30.3612   8.5617  63.9562   C.2       1 RES1   0.0000
    14 C14     31.3412   7.7847  66.0231   C.2       1 RES1   0.0000
    15 C15     31.3452   9.5457  63.8512   C.2       1 RES1   0.0000
    16 C16     32.3212   8.7867  65.9441   C.2       1 RES1   0.0000
    17 C17     24.1631   4.5598  62.1982   C.2       1 RES1   0.0000
    18 C18     24.8421   3.7359  63.1012   C.2       1 RES1   0.0000
    19 C19     26.5691  12.1406  60.3233   C.2       1 RES1   0.0000
    20 C20     25.6711  10.6896  61.6422   C.2       1 RES1   0.0000
    21 C21     25.7551   6.3388  62.6572   C.2       1 RES1   0.0000
    22 C22     23.6931   8.7917  59.6883   C.3       1 RES1   0.0000
    23 C23     23.5211  10.1466  60.3843   C.3       1 RES1   0.0000
    24 C24     23.7841   6.7398  61.0383   C.2       1 RES1   0.0000
    25 C25     30.3442   7.6837  65.0491   C.2       1 RES1   0.0000
    26 C26     24.6011   5.8698  62.0012   C.2       1 RES1   0.0000
    27 C27     24.8611  10.8506  60.5993   C.2       1 RES1   0.0000
    28 C28     32.3142   9.6547  64.8502   C.2       1 RES1   0.0000
    29 C29     27.7082   4.4388  65.0651   C.2       1 RES1   0.0000
    30 C30     27.5172   5.6648  64.4242   C.2       1 RES1   0.0000
    31 C31     25.9861   4.1878  63.7612   C.2       1 RES1   0.0000
    32 C32     26.4531   5.4868  63.5342   C.2       1 RES1   0.0000
    33 H1      23.2994   4.1820  61.6531   H         1 RES1   0.0000
    34 H2      27.2589  12.8705  59.9023   H         1 RES1   0.0000
    35 H3      25.4991  10.0283  62.4902   H         1 RES1   0.0000
    36 H4      26.1061   7.3556  62.4871   H         1 RES1   0.0000
    37 H5      29.5998   8.4751  63.1824   H         1 RES1   0.0000
    38 H6      22.7143   8.3951  59.4226   H         1 RES1   0.0000
    39 H7      24.2891   8.9219  58.7862   H         1 RES1   0.0000
    40 H8      23.0474   9.9878  61.3520   H         1 RES1   0.0000
    41 H9      22.8850  10.7806  59.7684   H         1 RES1   0.0000
    42 H10     24.4738   2.7290  63.2920   H         1 RES1   0.0000
    43 H11     31.3581   7.0787  66.8521   H         1 RES1   0.0000
    44 H12     31.3570  10.2222  62.9979   H         1 RES1   0.0000
    45 H13     33.0751   8.8856  66.7237   H         1 RES1   0.0000
    46 H14     27.5218  11.5627  62.0969   H         1 RES1   0.0000
    47 H15     25.3280   8.0429  60.8902   H         1 RES1   0.0000
    48 H16     26.6780   2.6131  64.9874   H         1 RES1   0.0000
    49 H17     29.6194   5.8991  65.7099   H         1 RES1   0.0000
    50 H18     32.7212  12.0194  62.9088   H         1 RES1   0.0000
    51 H19     33.0105  13.0660  64.2913   H         1 RES1   0.0000
@<TRIPOS>BOND
     1     1    19    1
     2     1    20    1
     3     2     7    1
     4     2    11    2
     5     2    12    2
     6     2    28    1
     7     3    19    2
     8     3    27    1
     9     4    22    1
    10     4    24   am
    11     5    29   am
    12     5    31    1
    13     6     8    1
    14     6    30    2
    15     8    25    1
    16     9    24    2
    17    10    29    2
    18    13    15    2
    19    13    25    1
    20    14    16    1
    21    14    25    2
    22    15    28    1
    23    16    28    2
    24    17    18    1
    25    17    26    2
    26    18    31    2
    27    20    27    2
    28    21    26    1
    29    21    32    2
    30    22    23    1
    31    23    27    1
    32    24    26    1
    33    29    30    1
    34    30    32    1
    35    31    32    1
    36    17    33    1
    37    19    34    1
    38    20    35    1
    39    21    36    1
    40    13    37    1
    41    22    38    1
    42    22    39    1
    43    23    40    1
    44    23    41    1
    45    18    42    1
    46    14    43    1
    47    15    44    1
    48    16    45    1
    49     1    46    1
    50     4    47    1
    51     5    48    1
    52     8    49    1
    53     7    50    1
    54     7    51    1
@<TRIPOS>SUBSTRUCTURE
     1 RES1        1 GROUP             0 ****  ****    0  
@<TRIPOS>MOLECULE
4FKU:A:60K303
    37    39     1     0     0
SMALL
NO_CHARGES
****
Generated from the CSD

@<TRIPOS>ATOM
     1 S1      33.3701  10.9120  64.6262   S.o2      1 RES1   0.0000
     2 C2      32.0671   9.7410  64.7872   C.2       1 RES1   0.0000
     3 N3      32.8741  12.1070  63.6702   N.pl3     1 RES1   0.0000
     4 O4      33.6331  11.4800  65.9162   O.2       1 RES1   0.0000
     5 C5      32.1421   8.8120  65.8042   C.2       1 RES1   0.0000
     6 N6      29.3011   6.6620  65.0282   N.pl3     1 RES1   0.0000
     7 O7      34.4521  10.2570  63.9842   O.2       1 RES1   0.0000
     8 C8      31.2241   7.7890  65.8602   C.2       1 RES1   0.0000
     9 N9      28.1881   6.6070  64.2122   N.2       1 RES1   0.0000
    10 O10     28.6181   4.1690  65.9252   O.2       1 RES1   0.0000
    11 C11     30.2331   7.6790  64.8992   C.2       1 RES1   0.0000
    12 N12     26.7671   3.4160  64.7312   N.am      1 RES1   0.0000
    13 O13     22.5921   5.6790  60.4492   O.2       1 RES1   0.0000
    14 C14     27.4701   5.5400  64.2652   C.2       1 RES1   0.0000
    15 O15     24.0291   7.3650  60.6922   O.3       1 RES1   0.0000
    16 C16     27.7191   4.3170  65.0922   C.2       1 RES1   0.0000
    17 C17     25.8931   3.9420  63.7762   C.2       1 RES1   0.0000
    18 C18     24.8061   3.3420  63.1542   C.2       1 RES1   0.0000
    19 C19     24.0701   4.0920  62.2522   C.2       1 RES1   0.0000
    20 C20     24.4101   5.4100  61.9522   C.2       1 RES1   0.0000
    21 C21     23.6051   6.1800  60.9502   C.2       1 RES1   0.0000
    22 C22     25.5231   5.9950  62.5582   C.2       1 RES1   0.0000
    23 C23     26.2771   5.2630  63.4772   C.2       1 RES1   0.0000
    24 C24     30.1491   8.6320  63.8932   C.2       1 RES1   0.0000
    25 C25     31.0521   9.6750  63.8462   C.2       1 RES1   0.0000
    26 H1      24.5394   2.3085  63.3701   H         1 RES1   0.0000
    27 H2      23.3329   8.0274  60.9424   H         1 RES1   0.0000
    28 H3      26.6995   2.4764  65.1091   H         1 RES1   0.0000
    29 H4      23.2059   3.6417  61.7661   H         1 RES1   0.0000
    30 H5      25.8024   7.0191  62.3149   H         1 RES1   0.0000
    31 H6      29.3679   8.5564  63.1383   H         1 RES1   0.0000
    32 H7      30.9675  10.4399  63.0757   H         1 RES1   0.0000
    33 H8      31.2771   7.0595  66.6670   H         1 RES1   0.0000
    34 H9      32.9238   8.8880  66.5586   H         1 RES1   0.0000
    35 H10     33.4966  12.8808  63.4604   H         1 RES1   0.0000
    36 H11     31.9386  12.0872  63.2768   H         1 RES1   0.0000
    37 H12     29.4385   5.9456  65.7340   H         1 RES1   0.0000
@<TRIPOS>BOND
     1     1     2    1
     2     1     3    1
     3     1     4    2
     4     1     7    2
     5     2     5    2
     6     2    25    1
     7     5     8    1
     8     6     9    1
     9     6    11    1
    10     8    11    2
    11     9    14    2
    12    10    16    2
    13    11    24    1
    14    12    16   am
    15    12    17    1
    16    13    21    2
    17    14    16    1
    18    14    23    1
    19    15    21    1
    20    17    18    1
    21    17    23    2
    22    18    19    2
    23    19    20    1
    24    20    21    1
    25    20    22    2
    26    22    23    1
    27    24    25    2
    28    18    26    1
    29    15    27    1
    30    12    28    1
    31    19    29    1
    32    22    30    1
    33    24    31    1
    34    25    32    1
    35     8    33    1
    36     5    34    1
    37     3    35    1
    38     3    36    1
    39     6    37    1
@<TRIPOS>SUBSTRUCTURE
     1 RES1        1 GROUP             0 ****  ****    0  
@<TRIPOS>MOLECULE
4RJ3:A:3QS302
    57    61     1     0     0
SMALL
NO_CHARGES
****
Generated from the CSD

@<TRIPOS>ATOM
     1 C1      29.1125  12.3952  62.7091   C.3       1 RES1   0.0000
     2 C2      30.3955  11.5482  62.8191   C.3       1 RES1   0.0000
     3 C3      31.8335   9.1521  65.7851   C.2       1 RES1   0.0000
     4 C4      29.1005   9.5401  61.8711   C.3       1 RES1   0.0000
     5 C5      27.8265  10.3801  61.9661   C.3       1 RES1   0.0000
     6 C6      30.4705   9.3391  63.9101   C.2       1 RES1   0.0000
     7 C7      31.2115   7.9531  66.1121   C.2       1 RES1   0.0000
     8 C8      30.1915   7.4721  65.2811   C.2       1 RES1   0.0000
     9 C9      28.2195  11.8182  61.5981   C.3       1 RES1   0.0000
    10 C10     26.6034  12.6392  60.0350   C.3       1 RES1   0.0000
    11 O11     27.0515  12.6182  61.3941   O.3       1 RES1   0.0000
    12 N12     30.1355  10.0831  62.7831   N.pl3     1 RES1   0.0000
    13 N13     31.4385   9.8101  64.6921   N.2       1 RES1   0.0000
    14 N14     29.8445   8.1871  64.1961   N.2       1 RES1   0.0000
    15 N15     29.5975   6.2641  65.6431   N.pl3     1 RES1   0.0000
    16 C16     28.5285   5.6151  65.0131   C.2       1 RES1   0.0000
    17 C17     27.7075   6.2531  64.0801   C.2       1 RES1   0.0000
    18 C18     26.6664   5.5521  63.4931   C.2       1 RES1   0.0000
    19 C19     26.4674   4.2021  63.8761   C.2       1 RES1   0.0000
    20 C20     25.3164   3.7341  63.0991   C.2       1 RES1   0.0000
    21 C21     24.9104   4.7601  62.3381   C.2       1 RES1   0.0000
    22 N22     25.6984   5.8681  62.5651   N.pl3     1 RES1   0.0000
    23 C23     25.5884   7.1731  61.8971   C.3       1 RES1   0.0000
    24 C24     26.3244   7.0801  60.5320   C.3       1 RES1   0.0000
    25 C25     25.5814   8.0461  59.5660   C.3       1 RES1   0.0000
    26 C26     24.4124   8.6411  60.4030   C.3       1 RES1   0.0000
    27 C27     24.1624   7.5541  61.4741   C.3       1 RES1   0.0000
    28 C28     27.3325   3.6261  64.8161   C.2       1 RES1   0.0000
    29 N29     28.3195   4.3411  65.3501   N.2       1 RES1   0.0000
    30 H1      27.1961   2.5868  65.1114   H         1 RES1   0.0000
    31 H2      23.5954   7.9521  62.3143   H         1 RES1   0.0000
    32 H3      23.6351   6.6996  61.0525   H         1 RES1   0.0000
    33 H4      23.5278   8.7937  59.7865   H         1 RES1   0.0000
    34 H5      24.7014   9.5848  60.8632   H         1 RES1   0.0000
    35 H6      25.1962   7.5029  58.7043   H         1 RES1   0.0000
    36 H7      26.2497   8.8365  59.2277   H         1 RES1   0.0000
    37 H8      26.2834   6.0609  60.1507   H         1 RES1   0.0000
    38 H9      27.3641   7.3845  60.6431   H         1 RES1   0.0000
    39 H10     26.0259   7.9563  62.5144   H         1 RES1   0.0000
    40 H11     24.0760   4.7235  61.6393   H         1 RES1   0.0000
    41 H12     24.8740   2.7396  63.1335   H         1 RES1   0.0000
    42 H13     27.8846   7.2946  63.8159   H         1 RES1   0.0000
    43 H14     26.3639  11.6259  59.7160   H         1 RES1   0.0000
    44 H15     25.7153  13.2643  59.9552   H         1 RES1   0.0000
    45 H16     27.3901  13.0434  59.3996   H         1 RES1   0.0000
    46 H17     29.9852   5.8007  66.4587   H         1 RES1   0.0000
    47 H18     29.4729   9.5643  60.8480   H         1 RES1   0.0000
    48 H19     28.8763   8.5120  62.1516   H         1 RES1   0.0000
    49 H20     27.4295  10.3469  62.9796   H         1 RES1   0.0000
    50 H21     27.0771  10.0058  61.2702   H         1 RES1   0.0000
    51 H22     31.5119   7.3971  66.9990   H         1 RES1   0.0000
    52 H23     32.6313   9.5493  66.4109   H         1 RES1   0.0000
    53 H24     28.7904  11.7953  60.6710   H         1 RES1   0.0000
    54 H25     30.8897  11.7891  63.7591   H         1 RES1   0.0000
    55 H26     31.0514  11.8039  61.9882   H         1 RES1   0.0000
    56 H27     29.3749  13.4242  62.4679   H         1 RES1   0.0000
    57 H28     28.5769  12.3698  63.6569   H         1 RES1   0.0000
@<TRIPOS>BOND
     1     1     2    1
     2     1     9    1
     3     2    12    1
     4     3     7    2
     5     3    13    1
     6     4     5    1
     7     4    12    1
     8     5     9    1
     9     6    12    1
    10     6    13    2
    11     6    14    1
    12     7     8    1
    13     8    14    2
    14     8    15    1
    15     9    11    1
    16    10    11    1
    17    15    16    1
    18    16    17    2
    19    16    29    1
    20    17    18    1
    21    18    19    2
    22    18    22    1
    23    19    20    1
    24    19    28    1
    25    20    21    2
    26    21    22    1
    27    22    23    1
    28    23    24    1
    29    23    27    1
    30    24    25    1
    31    25    26    1
    32    26    27    1
    33    28    29    2
    34    28    30    1
    35    27    31    1
    36    27    32    1
    37    26    33    1
    38    26    34    1
    39    25    35    1
    40    25    36    1
    41    24    37    1
    42    24    38    1
    43    23    39    1
    44    21    40    1
    45    20    41    1
    46    17    42    1
    47    10    43    1
    48    10    44    1
    49    10    45    1
    50    15    46    1
    51     4    47    1
    52     4    48    1
    53     5    49    1
    54     5    50    1
    55     7    51    1
    56     3    52    1
    57     9    53    1
    58     2    54    1
    59     2    55    1
    60     1    56    1
    61     1    57    1
@<TRIPOS>SUBSTRUCTURE
     1 RES1        1 GROUP             0 ****  ****    0  
@<TRIPOS>MOLECULE
1OIU:A:N761298
    50    53     1     0     0
SMALL
NO_CHARGES
****
Generated from the CSD

@<TRIPOS>ATOM
     1 C1      28.5088   5.8079  65.0675   C.2       1 RES1   0.0000
     2 C2      25.2738   3.0620  63.7456   C.2       1 RES1   0.0000
     3 C3      26.6058   8.6219  62.8286   C.3       1 RES1   0.0000
     4 C4      25.9618   9.3149  61.6457   C.3       1 RES1   0.0000
     5 C5      26.3818  10.7829  61.6707   C.3       1 RES1   0.0000
     6 C6      25.7848  11.5069  60.4637   C.3       1 RES1   0.0000
     7 C7      26.1888  10.8409  59.1518   C.3       1 RES1   0.0000
     8 C8      25.8588   9.3469  59.1288   C.3       1 RES1   0.0000
     9 C9      26.4268   8.6339  60.3517   C.3       1 RES1   0.0000
    10 C10     31.7368   9.7019  65.3175   C.2       1 RES1   0.0000
    11 C11     31.6638   9.0619  66.5524   C.2       1 RES1   0.0000
    12 N12     29.6388   6.1579  65.7165   N.pl3     1 RES1   0.0000
    13 C13     30.9528   7.8679  66.6564   C.2       1 RES1   0.0000
    14 C14     30.3108   7.3219  65.5465   C.2       1 RES1   0.0000
    15 N15     33.9437   9.8979  67.5324   N.pl3     1 RES1   0.0000
    16 N16     27.8348   6.7109  64.3175   N.2       1 RES1   0.0000
    17 C17     26.7018   6.3879  63.6486   C.2       1 RES1   0.0000
    18 O18     26.0508   7.3149  62.9076   O.3       1 RES1   0.0000
    19 C19     26.1788   5.0170  63.7366   C.2       1 RES1   0.0000
    20 N20     25.0998   4.3320  63.2146   N.2       1 RES1   0.0000
    21 N21     26.3978   2.8820  64.5605   N.pl3     1 RES1   0.0000
    22 C22     26.9538   4.1300  64.5515   C.2       1 RES1   0.0000
    23 N23     28.0808   4.5320  65.1785   N.2       1 RES1   0.0000
    24 C24     30.3988   7.9569  64.3085   C.2       1 RES1   0.0000
    25 C25     31.1118   9.1489  64.1965   C.2       1 RES1   0.0000
    26 S26     32.3898   9.7009  67.8463   S.o2      1 RES1   0.0000
    27 O27     32.2478   8.8439  68.9803   O.2       1 RES1   0.0000
    28 O28     31.7778  10.9699  68.1063   O.2       1 RES1   0.0000
    29 H1      32.2842  10.6388  65.2249   H         1 RES1   0.0000
    30 H2      29.9136   7.5243  63.4348   H         1 RES1   0.0000
    31 H3      31.1822   9.6510  63.2327   H         1 RES1   0.0000
    32 H4      30.8982   7.3557  67.6159   H         1 RES1   0.0000
    33 H5      26.7166   2.0430  65.0345   H         1 RES1   0.0000
    34 H6      34.5582  10.2909  68.2382   H         1 RES1   0.0000
    35 H7      34.3165   9.6300  66.6271   H         1 RES1   0.0000
    36 H8      30.0160   5.4953  66.3865   H         1 RES1   0.0000
    37 H9      26.2850   8.9035  58.2301   H         1 RES1   0.0000
    38 H10     24.7769   9.2229  59.1168   H         1 RES1   0.0000
    39 H11     27.2619  10.9640  59.0133   H         1 RES1   0.0000
    40 H12     25.6591  11.3284  58.3347   H         1 RES1   0.0000
    41 H13     27.4681  10.8499  61.6329   H         1 RES1   0.0000
    42 H14     26.0211  11.2477  62.5871   H         1 RES1   0.0000
    43 H15     24.8781   9.2438  61.7266   H         1 RES1   0.0000
    44 H16     26.3936   9.1727  63.7438   H         1 RES1   0.0000
    45 H17     27.6833   8.5609  62.6832   H         1 RES1   0.0000
    46 H18     24.5759   2.2516  63.5402   H         1 RES1   0.0000
    47 H19     26.1373  12.5373  60.4600   H         1 RES1   0.0000
    48 H20     24.6990  11.4950  60.5462   H         1 RES1   0.0000
    49 H21     26.0873   7.5992  60.3511   H         1 RES1   0.0000
    50 H22     27.5146   8.6591  60.3062   H         1 RES1   0.0000
@<TRIPOS>BOND
     1     1    12    1
     2     1    16    2
     3     1    23    1
     4     2    20    2
     5     2    21    1
     6     3     4    1
     7     3    18    1
     8     4     5    1
     9     4     9    1
    10     5     6    1
    11     6     7    1
    12     7     8    1
    13     8     9    1
    14    10    11    2
    15    10    25    1
    16    11    13    1
    17    11    26    1
    18    12    14    1
    19    13    14    2
    20    14    24    1
    21    15    26    1
    22    16    17    1
    23    17    18    1
    24    17    19    2
    25    19    20    1
    26    19    22    1
    27    21    22    1
    28    22    23    2
    29    24    25    2
    30    26    27    2
    31    26    28    2
    32    10    29    1
    33    24    30    1
    34    25    31    1
    35    13    32    1
    36    21    33    1
    37    15    34    1
    38    15    35    1
    39    12    36    1
    40     8    37    1
    41     8    38    1
    42     7    39    1
    43     7    40    1
    44     5    41    1
    45     5    42    1
    46     4    43    1
    47     3    44    1
    48     3    45    1
    49     2    46    1
    50     6    47    1
    51     6    48    1
    52     9    49    1
    53     9    50    1
@<TRIPOS>SUBSTRUCTURE
     1 RES1        1 GROUP             0 ****  ****    0  
@<TRIPOS>MOLECULE
5OSM:A:AEQ301
    35    36     1     0     0
SMALL
NO_CHARGES
****
Generated from the CSD

@<TRIPOS>ATOM
     1 C1      25.6075   5.0559  63.0520   C.2       1 RES1   0.0000
     2 C2      22.9624   4.4029  64.3430   C.3       1 RES1   0.0000
     3 C3      26.0455   7.5008  62.3580   C.3       1 RES1   0.0000
     4 C4      25.7725   6.8768  60.9770   C.3       1 RES1   0.0000
     5 C5      24.4594   6.0868  61.0400   C.3       1 RES1   0.0000
     6 C6      21.8624   3.2989  64.4070   C.3       1 RES1   0.0000
     7 C7      26.4335   6.2858  63.1820   C.2       1 RES1   0.0000
     8 C8      27.8775   5.0619  64.6910   C.2       1 RES1   0.0000
     9 O9      22.1844   4.9169  62.1820   O.2       1 RES1   0.0000
    10 C10     27.5685   6.2648  63.9980   C.2       1 RES1   0.0000
    11 C11     29.1095   5.0349  65.5210   C.2       1 RES1   0.0000
    12 C12     31.1986   5.6938  66.2070   C.3       1 RES1   0.0000
    13 C13     25.9645   3.9069  63.7590   C.2       1 RES1   0.0000
    14 C14     27.0965   3.8589  64.5690   C.2       1 RES1   0.0000
    15 O15     29.5135   3.9589  65.9940   O.2       1 RES1   0.0000
    16 O16     29.9125   6.2228  65.7220   O.3       1 RES1   0.0000
    17 N17     24.4154   5.2479  62.3010   N.am      1 RES1   0.0000
    18 C18     23.1964   4.8729  62.8790   C.2       1 RES1   0.0000
    19 H1      22.1729   2.4421  63.8108   H         1 RES1   0.0000
    20 H2      21.7191   2.9888  65.4410   H         1 RES1   0.0000
    21 H3      20.9273   3.6950  64.0139   H         1 RES1   0.0000
    22 H4      23.8932   4.0016  64.7412   H         1 RES1   0.0000
    23 H5      22.6476   5.2545  64.9443   H         1 RES1   0.0000
    24 H6      25.1542   7.9820  62.7580   H         1 RES1   0.0000
    25 H7      26.8586   8.2237  62.3118   H         1 RES1   0.0000
    26 H8      28.1995   7.1464  64.1003   H         1 RES1   0.0000
    27 H9      24.3897   5.4343  60.1709   H         1 RES1   0.0000
    28 H10     23.6209   6.7816  61.0404   H         1 RES1   0.0000
    29 H11     25.3383   3.0199  63.6747   H         1 RES1   0.0000
    30 H12     27.3800   2.9458  65.0903   H         1 RES1   0.0000
    31 H13     31.6240   5.0292  65.4565   H         1 RES1   0.0000
    32 H14     31.8844   6.5194  66.3913   H         1 RES1   0.0000
    33 H15     31.0384   5.1416  67.1318   H         1 RES1   0.0000
    34 H16     26.5893   6.2078  60.7102   H         1 RES1   0.0000
    35 H17     25.6897   7.6646  60.2297   H         1 RES1   0.0000
@<TRIPOS>BOND
     1     1     7    2
     2     1    13    1
     3     1    17    1
     4     2     6    1
     5     2    18    1
     6     3     4    1
     7     3     7    1
     8     4     5    1
     9     5    17    1
    10     7    10    1
    11     8    10    2
    12     8    11    1
    13     8    14    1
    14     9    18    2
    15    11    15    2
    16    11    16    1
    17    12    16    1
    18    13    14    2
    19    17    18   am
    20     6    19    1
    21     6    20    1
    22     6    21    1
    23     2    22    1
    24     2    23    1
    25     3    24    1
    26     3    25    1
    27    10    26    1
    28     5    27    1
    29     5    28    1
    30    13    29    1
    31    14    30    1
    32    12    31    1
    33    12    32    1
    34    12    33    1
    35     4    34    1
    36     4    35    1
@<TRIPOS>SUBSTRUCTURE
     1 RES1        1 GROUP             0 ****  ****    0  
@<TRIPOS>MOLECULE
3RAK:A:03Z497
    39    41     1     0     0
SMALL
NO_CHARGES
****
Generated from the CSD

@<TRIPOS>ATOM
     1 C1      24.3823   8.2029  60.4671   C.2       1 RES1   0.0000
     2 N2      28.3702   4.2489  65.3989   N.2       1 RES1   0.0000
     3 O3      34.3851  10.1238  63.9450   O.2       1 RES1   0.0000
     4 S4      27.6523   6.3669  64.1130   S.3       1 RES1   0.0000
     5 C5      23.4154   7.4639  61.2650   C.2       1 RES1   0.0000
     6 N6      26.8313   2.6390  64.6379   N.pl3     1 RES1   0.0000
     7 O7      33.7811  11.1778  66.3029   O.2       1 RES1   0.0000
     8 S8      33.2101  10.6548  64.8919   S.o2      1 RES1   0.0000
     9 C9      23.8234   6.3539  62.0710   C.2       1 RES1   0.0000
    10 N10     29.7322   6.0589  65.9419   N.pl3     1 RES1   0.0000
    11 O11     25.0383   3.6129  62.8090   O.2       1 RES1   0.0000
    12 C12     26.2053   6.6919  61.2920   C.2       1 RES1   0.0000
    13 N13     32.4441  11.7988  64.1530   N.pl3     1 RES1   0.0000
    14 C14     25.8023   7.8069  60.4831   C.2       1 RES1   0.0000
    15 C15     25.2223   5.9499  62.1020   C.2       1 RES1   0.0000
    16 C16     25.6613   4.7969  62.9250   C.2       1 RES1   0.0000
    17 C17     26.8103   4.9139  63.8730   C.2       1 RES1   0.0000
    18 C18     27.3143   3.8959  64.6379   C.2       1 RES1   0.0000
    19 C19     28.6762   5.5369  65.2339   C.2       1 RES1   0.0000
    20 C20     30.5122   7.1569  65.6529   C.2       1 RES1   0.0000
    21 C21     30.3392   8.0069  64.4549   C.2       1 RES1   0.0000
    22 C22     31.1802   9.1139  64.2120   C.2       1 RES1   0.0000
    23 C23     32.2291   9.4188  65.1519   C.2       1 RES1   0.0000
    24 C24     32.4131   8.5959  66.3399   C.2       1 RES1   0.0000
    25 C25     31.5762   7.4889  66.5899   C.2       1 RES1   0.0000
    26 H1      29.5465   7.7737  63.7456   H         1 RES1   0.0000
    27 H2      31.0383   9.7300  63.3253   H         1 RES1   0.0000
    28 H3      31.7254   6.8831  67.4825   H         1 RES1   0.0000
    29 H4      33.2074   8.8389  67.0441   H         1 RES1   0.0000
    30 H5      27.2515   6.3900  61.3076   H         1 RES1   0.0000
    31 H6      26.5347   8.3524  59.8899   H         1 RES1   0.0000
    32 H7      31.6602  12.2589  64.6048   H         1 RES1   0.0000
    33 H8      32.7304  12.0818  63.2213   H         1 RES1   0.0000
    34 H9      29.9706   5.5667  66.7970   H         1 RES1   0.0000
    35 H10     24.0577   9.0464  59.8596   H         1 RES1   0.0000
    36 H11     22.3674   7.7594  61.2486   H         1 RES1   0.0000
    37 H12     26.0351   2.4013  64.0550   H         1 RES1   0.0000
    38 H13     27.2634   1.9293  65.2208   H         1 RES1   0.0000
    39 H14     23.0871   5.8108  62.6617   H         1 RES1   0.0000
@<TRIPOS>BOND
     1     1     5    2
     2     1    14    1
     3     2    18    1
     4     2    19    2
     5     3     8    2
     6     4    17    1
     7     4    19    1
     8     5     9    1
     9     6    18    1
    10     7     8    2
    11     8    13    1
    12     8    23    1
    13     9    15    2
    14    10    19    1
    15    10    20    1
    16    11    16    2
    17    12    14    2
    18    12    15    1
    19    15    16    1
    20    16    17    1
    21    17    18    2
    22    20    21    2
    23    20    25    1
    24    21    22    1
    25    22    23    2
    26    23    24    1
    27    24    25    2
    28    21    26    1
    29    22    27    1
    30    25    28    1
    31    24    29    1
    32    12    30    1
    33    14    31    1
    34    13    32    1
    35    13    33    1
    36    10    34    1
    37     1    35    1
    38     5    36    1
    39     6    37    1
    40     6    38    1
    41     9    39    1
@<TRIPOS>SUBSTRUCTURE
     1 RES1        1 GROUP             0 ****  ****    0  
@<TRIPOS>MOLECULE
1E1V:A:CMG401
    35    37     1     0     0
SMALL
NO_CHARGES
****
Generated from the CSD

@<TRIPOS>ATOM
     1 N1      29.0027   6.7962  64.8699   N.2       1 RES1   0.0000
     2 C2      29.5287   5.8342  65.6169   C.2       1 RES1   0.0000
     3 N3      28.9317   4.6271  65.6329   N.2       1 RES1   0.0000
     4 C4      27.8467   4.3751  64.9119   C.2       1 RES1   0.0000
     5 C5      27.3037   5.3802  64.1729   C.2       1 RES1   0.0000
     6 C6      27.8887   6.6442  64.1539   C.2       1 RES1   0.0000
     7 O7      27.2937   7.6182  63.3539   O.3       1 RES1   0.0000
     8 C8      28.2847   8.6522  63.0769   C.3       1 RES1   0.0000
     9 N9      26.2637   4.7851  63.6039   N.pl3     1 RES1   0.0000
    10 C10     26.0548   3.4721  63.9589   C.2       1 RES1   0.0000
    11 N11     27.1287   3.2671  64.7559   N.2       1 RES1   0.0000
    12 N12     30.6647   5.8162  66.3589   N.pl3     1 RES1   0.0000
    13 C13     27.5697   9.4573  61.9179   C.3       1 RES1   0.0000
    14 C14     26.3667  10.2043  62.5879   C.3       1 RES1   0.0000
    15 C15     25.8238  11.1873  61.5509   C.3       1 RES1   0.0000
    16 C16     26.7777  12.3764  61.8139   C.3       1 RES1   0.0000
    17 C17     27.9717  11.7483  60.9789   C.3       1 RES1   0.0000
    18 C18     28.4437  10.7103  62.0389   C.3       1 RES1   0.0000
    19 H1      25.2527   2.7912  63.6780   H         1 RES1   0.0000
    20 H2      29.4856  10.4498  61.8589   H         1 RES1   0.0000
    21 H3      28.3425  11.1333  63.0373   H         1 RES1   0.0000
    22 H4      24.7842  11.4488  61.7425   H         1 RES1   0.0000
    23 H5      25.9206  10.8040  60.5362   H         1 RES1   0.0000
    24 H6      29.2275   8.2223  62.7419   H         1 RES1   0.0000
    25 H7      28.4615   9.2799  63.9491   H         1 RES1   0.0000
    26 H8      25.6593   5.2684  62.9472   H         1 RES1   0.0000
    27 H9      26.7050  10.7416  63.4726   H         1 RES1   0.0000
    28 H10     25.5931   9.4916  62.8698   H         1 RES1   0.0000
    29 H11     27.0156  12.5100  62.8682   H         1 RES1   0.0000
    30 H12     26.4144  13.3167  61.4017   H         1 RES1   0.0000
    31 H13     30.9194   4.9813  66.8768   H         1 RES1   0.0000
    32 H14     31.2597   6.6377  66.3960   H         1 RES1   0.0000
    33 H15     27.4350   8.9893  60.9438   H         1 RES1   0.0000
    34 H16     28.7430  12.4806  60.7448   H         1 RES1   0.0000
    35 H17     27.6297  11.2748  60.0598   H         1 RES1   0.0000
@<TRIPOS>BOND
     1     1     2    2
     2     1     6    1
     3     2     3    1
     4     2    12    1
     5     3     4    2
     6     4     5    1
     7     4    11    1
     8     5     6    2
     9     5     9    1
    10     6     7    1
    11     7     8    1
    12     8    13    1
    13     9    10    1
    14    10    11    2
    15    13    14    1
    16    13    18    1
    17    14    15    1
    18    15    16    1
    19    16    17    1
    20    17    18    1
    21    10    19    1
    22    18    20    1
    23    18    21    1
    24    15    22    1
    25    15    23    1
    26     8    24    1
    27     8    25    1
    28     9    26    1
    29    14    27    1
    30    14    28    1
    31    16    29    1
    32    16    30    1
    33    12    31    1
    34    12    32    1
    35    13    33    1
    36    17    34    1
    37    17    35    1
@<TRIPOS>SUBSTRUCTURE
     1 RES1        1 GROUP             0 ****  ****    0  
@<TRIPOS>MOLECULE
5ANK:A:RJI1299
    27    28     1     0     0
SMALL
NO_CHARGES
****
Generated from the CSD

@<TRIPOS>ATOM
     1 C1      27.3423  10.0801  63.6784   C.2       1 RES1   0.0000
     2 C2      27.3993  11.3231  63.0224   C.2       1 RES1   0.0000
     3 C3      28.2203  11.4831  61.8914   C.2       1 RES1   0.0000
     4 C4      28.9863  10.4051  61.4104   C.2       1 RES1   0.0000
     5 C5      28.9353   9.1821  62.0724   C.2       1 RES1   0.0000
     6 C6      28.1223   8.9891  63.2004   C.2       1 RES1   0.0000
     7 N7      28.1163   7.7290  63.7844   N.am      1 RES1   0.0000
     8 C8      27.1193   6.8320  63.4834   C.2       1 RES1   0.0000
     9 O9      26.1913   7.2090  62.7264   O.2       1 RES1   0.0000
    10 C10     29.1073   7.3880  64.6454   C.2       1 RES1   0.0000
    11 O11     30.0093   8.1800  64.9634   O.2       1 RES1   0.0000
    12 N12     29.0603   6.1590  65.3064   N.am      1 RES1   0.0000
    13 C13     28.1373   5.2010  65.0004   C.2       1 RES1   0.0000
    14 O14     28.2273   4.1560  65.6424   O.2       1 RES1   0.0000
    15 C15     26.9763   5.5650  64.2284   C.3       1 RES1   0.0000
    16 C16     26.2363   4.5180  63.5614   C.2       1 RES1   0.0000
    17 O17     25.4893   4.7390  62.5514   O.2       1 RES1   0.0000
    18 N18     26.3083   3.3130  64.2194   N.am      1 RES1   0.0000
    19 H1      29.7361   5.9714  66.0401   H         1 RES1   0.0000
    20 H2      28.2633  12.4464  61.3853   H         1 RES1   0.0000
    21 H3      26.7026   9.9525  64.5504   H         1 RES1   0.0000
    22 H4      29.5410   8.3544  61.7064   H         1 RES1   0.0000
    23 H5      26.8084  12.1608  63.3898   H         1 RES1   0.0000
    24 H6      29.6132  10.5268  60.5283   H         1 RES1   0.0000
    25 H7      26.2788   5.8547  65.0130   H         1 RES1   0.0000
    26 H8      25.8274   2.5011  63.8456   H         1 RES1   0.0000
    27 H9      26.8424   3.2353  65.0790   H         1 RES1   0.0000
@<TRIPOS>BOND
     1     1     2    2
     2     1     6    1
     3     2     3    1
     4     3     4    2
     5     4     5    1
     6     5     6    2
     7     6     7    1
     8     7     8   am
     9     7    10   am
    10     8     9    2
    11     8    15    1
    12    10    11    2
    13    10    12   am
    14    12    13   am
    15    13    14    2
    16    13    15    1
    17    15    16    1
    18    16    17    2
    19    16    18   am
    20    12    19    1
    21     3    20    1
    22     1    21    1
    23     5    22    1
    24     2    23    1
    25     4    24    1
    26    15    25    1
    27    18    26    1
    28    18    27    1
@<TRIPOS>SUBSTRUCTURE
     1 RES1        1 GROUP             0 ****  ****    0  
@<TRIPOS>MOLECULE
5ANJ:A:ZXC1299
    24    26     1     0     0
SMALL
NO_CHARGES
****
Generated from the CSD

@<TRIPOS>ATOM
     1 C1      27.0664   5.7000  64.0425   C.2       1 RES1   0.0000
     2 C2      27.7324   6.8720  64.2445   C.2       1 RES1   0.0000
     3 C3      27.4684   4.5620  64.7575   C.2       1 RES1   0.0000
     4 N4      26.0765   5.3080  63.2165   N.2       1 RES1   0.0000
     5 N5      27.5064   8.0970  63.5955   N.am      1 RES1   0.0000
     6 N6      28.7514   6.9720  65.1225   N.2       1 RES1   0.0000
     7 N7      26.7774   3.5090  64.3375   N.pl3     1 RES1   0.0000
     8 N8      28.4764   4.6460  65.6085   N.2       1 RES1   0.0000
     9 C9      25.8845   3.9960  63.3725   C.2       1 RES1   0.0000
    10 C10     26.3235   8.6710  63.1985   C.2       1 RES1   0.0000
    11 C11     29.1054   5.8780  65.8725   C.2       1 RES1   0.0000
    12 C12     26.3955   9.9750  62.7795   C.2       1 RES1   0.0000
    13 O13     25.2235   8.1570  63.3395   O.2       1 RES1   0.0000
    14 C14     27.4504  10.7430  62.5115   C.2       1 RES1   0.0000
    15 S15     24.9885  10.9880  62.8015   S.3       1 RES1   0.0000
    16 C16     27.1194  12.0630  62.2665   C.2       1 RES1   0.0000
    17 C17     25.8235  12.3780  62.3605   C.2       1 RES1   0.0000
    18 H1      27.8735  12.8059  62.0108   H         1 RES1   0.0000
    19 H2      28.4726  10.3682  62.4877   H         1 RES1   0.0000
    20 H3      25.3871  13.3598  62.1830   H         1 RES1   0.0000
    21 H4      28.3403   8.6378  63.3895   H         1 RES1   0.0000
    22 H5      26.8754   2.5485  64.6507   H         1 RES1   0.0000
    23 H6      25.1500   3.3982  62.8348   H         1 RES1   0.0000
    24 H7      29.8574   5.9612  66.6558   H         1 RES1   0.0000
@<TRIPOS>BOND
     1     1     2    2
     2     1     3    1
     3     1     4    1
     4     2     5    1
     5     2     6    1
     6     3     7    1
     7     3     8    2
     8     4     9    2
     9     5    10   am
    10     6    11    2
    11     7     9    1
    12     8    11    1
    13    10    12    1
    14    10    13    2
    15    12    14    2
    16    12    15    1
    17    14    16    1
    18    15    17    1
    19    16    17    2
    20    16    18    1
    21    14    19    1
    22    17    20    1
    23     5    21    1
    24     7    22    1
    25     9    23    1
    26    11    24    1
@<TRIPOS>SUBSTRUCTURE
     1 RES1        1 GROUP             0 ****  ****    0  
@<TRIPOS>MOLECULE
3TIZ:A:3TI299
    35    37     1     0     0
SMALL
NO_CHARGES
****
Generated from the CSD

@<TRIPOS>ATOM
     1 N1      29.9160   6.5820  65.3850   N.pl3     1 RES1   0.0000
     2 C2      30.9310   7.5980  65.6580   C.2       1 RES1   0.0000
     3 C3      31.4460   7.7500  66.9580   C.2       1 RES1   0.0000
     4 C4      32.4250   8.7360  67.2270   C.2       1 RES1   0.0000
     5 C5      32.8860   9.5499  66.2150   C.2       1 RES1   0.0000
     6 C6      32.3700   9.4039  64.9201   C.2       1 RES1   0.0000
     7 C7      31.3830   8.4160  64.6471   C.2       1 RES1   0.0000
     8 C8      28.8640   6.7750  64.3941   C.3       1 RES1   0.0000
     9 C9      27.8770   5.5960  64.1181   C.2       1 RES1   0.0000
    10 C10     27.9700   4.4070  64.8701   C.2       1 RES1   0.0000
    11 C11     27.1000   3.3410  64.6371   C.2       1 RES1   0.0000
    12 C12     26.0950   3.4590  63.6381   C.2       1 RES1   0.0000
    13 C13     25.9850   4.6700  62.8611   C.2       1 RES1   0.0000
    14 C14     26.8510   5.7260  63.0901   C.2       1 RES1   0.0000
    15 C15     26.7360   6.9190  62.3151   C.2       1 RES1   0.0000
    16 C16     25.7360   7.0350  61.3102   C.2       1 RES1   0.0000
    17 C17     24.8500   5.9590  61.0852   C.2       1 RES1   0.0000
    18 C18     24.9630   4.7930  61.8351   C.2       1 RES1   0.0000
    19 O19     33.8320  10.5049  66.4830   O.3       1 RES1   0.0000
    20 O20     28.9460   4.2860  65.8410   O.3       1 RES1   0.0000
    21 H1      24.0766   6.0421  60.3230   H         1 RES1   0.0000
    22 H2      24.2797   3.9651  61.6519   H         1 RES1   0.0000
    23 H3      27.4196   7.7475  62.4946   H         1 RES1   0.0000
    24 H4      25.6545   7.9461  60.7193   H         1 RES1   0.0000
    25 H5      34.6523  10.0689  66.8337   H         1 RES1   0.0000
    26 H6      28.8233   4.9963  66.5240   H         1 RES1   0.0000
    27 H7      30.9854   8.3070  63.6392   H         1 RES1   0.0000
    28 H8      29.3511   7.0146  63.4501   H         1 RES1   0.0000
    29 H9      28.2667   7.6251  64.7203   H         1 RES1   0.0000
    30 H10     31.0899   7.1063  67.7609   H         1 RES1   0.0000
    31 H11     32.7262  10.0498  64.1189   H         1 RES1   0.0000
    32 H12     32.8153   8.8519  68.2370   H         1 RES1   0.0000
    33 H13     27.1903   2.4238  65.2172   H         1 RES1   0.0000
    34 H14     25.4071   2.6340  63.4591   H         1 RES1   0.0000
    35 H15     29.9447   5.7103  65.9042   H         1 RES1   0.0000
@<TRIPOS>BOND
     1     1     2    1
     2     1     8    1
     3     2     3    2
     4     2     7    1
     5     3     4    1
     6     4     5    2
     7     5     6    1
     8     5    19    1
     9     6     7    2
    10     8     9    1
    11     9    10    2
    12     9    14    1
    13    10    11    1
    14    10    20    1
    15    11    12    2
    16    12    13    1
    17    13    14    2
    18    13    18    1
    19    14    15    1
    20    15    16    2
    21    16    17    1
    22    17    18    2
    23    17    21    1
    24    18    22    1
    25    15    23    1
    26    16    24    1
    27    19    25    1
    28    20    26    1
    29     7    27    1
    30     8    28    1
    31     8    29    1
    32     3    30    1
    33     6    31    1
    34     4    32    1
    35    11    33    1
    36    12    34    1
    37     1    35    1
@<TRIPOS>SUBSTRUCTURE
     1 RES1        1 GROUP             0 ****  ****    0  
@<TRIPOS>MOLECULE
3RAI:A:X85923
    56    58     1     0     0
SMALL
USER_CHARGES
****
Generated from the CSD

@<TRIPOS>ATOM
     1 C1      28.7714   8.0440  63.5013   C.2       1 RES1   0.0000
     2 C2      27.5154   8.5100  63.0133   C.2       1 RES1   0.0000
     3 C3      26.3275   7.7220  63.2163   C.2       1 RES1   0.0000
     4 C4      26.4335   6.4570  63.9013   C.2       1 RES1   0.0000
     5 C5      27.7024   5.9830  64.3903   C.2       1 RES1   0.0000
     6 C6      28.8834   6.7850  64.1953   C.2       1 RES1   0.0000
     7 C7      27.7754   4.6680  65.0853   C.2       1 RES1   0.0000
     8 N8      26.8794   3.7080  64.6543   N.am      1 RES1   0.0000
     9 O9      28.5794   4.4000  65.9593   O.2       1 RES1   0.0000
    10 N10     25.0925   8.1550  62.7623   N.pl3     1 RES1   1.0000
    11 O11     24.1105   7.4300  62.9733   O.3       1 RES1  -1.0000
    12 O12     25.0135   9.2530  62.1713   O.2       1 RES1   0.0000
    13 N13     30.1234   6.3430  64.6743   N.pl3     1 RES1   0.0000
    14 C14     31.3794   7.0940  64.5223   C.3       1 RES1   0.0000
    15 N15     27.4484   9.7310  62.3403   N.pl3     1 RES1   0.0000
    16 C16     27.9424  10.9650  62.9193   C.3       1 RES1   0.0000
    17 C17     29.1884  11.3690  62.1573   C.3       1 RES1   0.0000
    18 C18     29.8694  12.5449  62.8303   C.3       1 RES1   0.0000
    19 C19     33.5023  13.4989  62.0773   C.3       1 RES1   0.0000
    20 C20     32.2623  13.1809  62.9393   C.3       1 RES1   0.0000
    21 N21     31.0544  12.8519  62.0273   N.3       1 RES1   0.0000
    22 C22     30.7374  14.0179  61.0503   C.3       1 RES1   0.0000
    23 C23     31.9763  14.3459  60.1863   C.3       1 RES1   0.0000
    24 O24     33.1573  13.4149  60.5613   O.3       1 RES1   0.0000
    25 C25     31.6183  10.3870  67.4083   C.2       1 RES1   0.0000
    26 N26     31.2474   9.0760  67.8433   N.2       1 RES1   0.0000
    27 C27     31.1674   7.9970  66.9203   C.2       1 RES1   0.0000
    28 C28     31.4624   8.2300  65.5423   C.2       1 RES1   0.0000
    29 C29     31.8323   9.5380  65.1093   C.2       1 RES1   0.0000
    30 C30     31.9113  10.6180  66.0393   C.2       1 RES1   0.0000
    31 H1      32.1947  11.6133  65.7002   H         1 RES1   0.0000
    32 H2      26.8744   2.7888  65.0847   H         1 RES1   0.0000
    33 H3      26.2264   3.9222  63.9074   H         1 RES1   0.0000
    34 H4      25.5408   5.8515  64.0509   H         1 RES1   0.0000
    35 H5      30.1574   5.4500  65.1557   H         1 RES1   0.0000
    36 H6      29.6628   8.6502  63.3470   H         1 RES1   0.0000
    37 H7      31.4253   7.5125  63.5180   H         1 RES1   0.0000
    38 H8      32.2196   6.4177  64.6726   H         1 RES1   0.0000
    39 H9      27.0390   9.7559  61.4119   H         1 RES1   0.0000
    40 H10     28.1846  10.8103  63.9697   H         1 RES1   0.0000
    41 H11     27.1862  11.7437  62.8320   H         1 RES1   0.0000
    42 H12     28.9116  11.6492  61.1420   H         1 RES1   0.0000
    43 H13     29.8776  10.5264  62.1263   H         1 RES1   0.0000
    44 H14     30.1608  12.2805  63.8457   H         1 RES1   0.0000
    45 H15     29.1997  13.4032  62.8566   H         1 RES1   0.0000
    46 H16     34.2890  12.7811  62.3048   H         1 RES1   0.0000
    47 H17     33.8501  14.5044  62.3092   H         1 RES1   0.0000
    48 H18     32.0223  14.0440  63.5585   H         1 RES1   0.0000
    49 H19     32.4764  12.3247  63.5773   H         1 RES1   0.0000
    50 H20     30.4553  14.9000  61.6232   H         1 RES1   0.0000
    51 H21     29.9129  13.7281  60.4006   H         1 RES1   0.0000
    52 H22     32.0567   9.7144  64.0584   H         1 RES1   0.0000
    53 H23     31.6756  11.2049  68.1251   H         1 RES1   0.0000
    54 H24     30.8838   7.0023  67.2610   H         1 RES1   0.0000
    55 H25     32.2679  15.3814  60.3553   H         1 RES1   0.0000
    56 H26     31.7283  14.2055  59.1352   H         1 RES1   0.0000
@<TRIPOS>BOND
     1     1     2    2
     2     1     6    1
     3     2     3    1
     4     2    15    1
     5     3     4    2
     6     3    10    1
     7     4     5    1
     8     5     6    2
     9     5     7    1
    10     6    13    1
    11     7     8   am
    12     7     9    2
    13    10    11    1
    14    10    12    2
    15    13    14    1
    16    14    28    1
    17    15    16    1
    18    16    17    1
    19    17    18    1
    20    18    21    1
    21    19    20    1
    22    19    24    1
    23    20    21    1
    24    21    22    1
    25    22    23    1
    26    23    24    1
    27    25    26    2
    28    25    30    1
    29    26    27    1
    30    27    28    2
    31    28    29    1
    32    29    30    2
    33    30    31    1
    34     8    32    1
    35     8    33    1
    36     4    34    1
    37    13    35    1
    38     1    36    1
    39    14    37    1
    40    14    38    1
    41    15    39    1
    42    16    40    1
    43    16    41    1
    44    17    42    1
    45    17    43    1
    46    18    44    1
    47    18    45    1
    48    19    46    1
    49    19    47    1
    50    20    48    1
    51    20    49    1
    52    22    50    1
    53    22    51    1
    54    29    52    1
    55    25    53    1
    56    27    54    1
    57    23    55    1
    58    23    56    1
@<TRIPOS>SUBSTRUCTURE
     1 RES1        1 GROUP             0 ****  ****    0  
@<TRIPOS>MOLECULE
3RPV:A:26Z495
    41    43     1     0     0
SMALL
NO_CHARGES
****
Generated from the CSD

@<TRIPOS>ATOM
     1 N1      28.4026   4.2830  65.3450   N.2       1 RES1   0.0000
     2 N2      29.6666   6.0930  65.8980   N.pl3     1 RES1   0.0000
     3 N3      26.8556   2.7420  64.5201   N.pl3     1 RES1   0.0000
     4 N4      26.3526   8.5910  59.9721   N.pl3     1 RES1   0.0000
     5 N5      32.3585  11.9110  63.9751   N.pl3     1 RES1   0.0000
     6 C6      26.7046   4.9750  63.8391   C.2       1 RES1   0.0000
     7 C7      27.2916   3.9370  64.5601   C.2       1 RES1   0.0000
     8 C8      28.6656   5.5620  65.2290   C.2       1 RES1   0.0000
     9 C9      30.4005   7.1330  65.6100   C.2       1 RES1   0.0000
    10 C10     25.5846   4.8590  62.9891   C.2       1 RES1   0.0000
    11 C11     25.1346   5.9270  62.1901   C.2       1 RES1   0.0000
    12 C12     23.7386   6.2080  62.1211   C.2       1 RES1   0.0000
    13 C13     23.2567   7.2850  61.3291   C.2       1 RES1   0.0000
    14 C14     24.1556   8.1020  60.5921   C.2       1 RES1   0.0000
    15 C15     25.5466   7.8440  60.6401   C.2       1 RES1   0.0000
    16 C16     26.0426   6.7560  61.4371   C.2       1 RES1   0.0000
    17 C17     30.2505   7.9230  64.4221   C.2       1 RES1   0.0000
    18 C18     31.1005   9.0270  64.1891   C.2       1 RES1   0.0000
    19 C19     32.1055   9.3510  65.1360   C.2       1 RES1   0.0000
    20 C20     32.2615   8.5830  66.3140   C.2       1 RES1   0.0000
    21 C21     31.4225   7.4890  66.5480   C.2       1 RES1   0.0000
    22 O22     24.9696   3.7910  62.9501   O.2       1 RES1   0.0000
    23 O23     34.2655  10.2010  64.0231   O.2       1 RES1   0.0000
    24 O24     33.7095  11.2360  66.0910   O.2       1 RES1   0.0000
    25 S25     27.6016   6.4220  64.1801   S.3       1 RES1   0.0000
    26 S26     33.1835  10.7130  64.8331   S.o2      1 RES1   0.0000
    27 H1      31.5479   6.9000  67.4554   H         1 RES1   0.0000
    28 H2      33.0333   8.8433  67.0369   H         1 RES1   0.0000
    29 H3      30.9847   9.6262  63.2871   H         1 RES1   0.0000
    30 H4      29.4782   7.6707  63.6970   H         1 RES1   0.0000
    31 H5      27.1125   6.5561  61.4726   H         1 RES1   0.0000
    32 H6      23.7747   8.9261  59.9907   H         1 RES1   0.0000
    33 H7      22.1873   7.4862  61.2866   H         1 RES1   0.0000
    34 H8      32.8348  12.7692  63.7165   H         1 RES1   0.0000
    35 H9      31.3864  11.7728  63.7180   H         1 RES1   0.0000
    36 H10     26.0505   2.5145  63.9454   H         1 RES1   0.0000
    37 H11     27.3130   2.0165  65.0629   H         1 RES1   0.0000
    38 H12     23.0356   5.5921  62.6800   H         1 RES1   0.0000
    39 H13     29.9029   5.6243  66.7667   H         1 RES1   0.0000
    40 H14     27.3514   8.4129  60.0010   H         1 RES1   0.0000
    41 H15     25.9899   9.3587  59.4159   H         1 RES1   0.0000
@<TRIPOS>BOND
     1     1     7    1
     2     1     8    2
     3     2     8    1
     4     2     9    1
     5     3     7    1
     6     4    15    1
     7     5    26    1
     8     6     7    2
     9     6    10    1
    10     6    25    1
    11     8    25    1
    12     9    17    2
    13     9    21    1
    14    10    11    1
    15    10    22    2
    16    11    12    2
    17    11    16    1
    18    12    13    1
    19    13    14    2
    20    14    15    1
    21    15    16    2
    22    17    18    1
    23    18    19    2
    24    19    20    1
    25    19    26    1
    26    20    21    2
    27    23    26    2
    28    24    26    2
    29    21    27    1
    30    20    28    1
    31    18    29    1
    32    17    30    1
    33    16    31    1
    34    14    32    1
    35    13    33    1
    36     5    34    1
    37     5    35    1
    38     3    36    1
    39     3    37    1
    40    12    38    1
    41     2    39    1
    42     4    40    1
    43     4    41    1
@<TRIPOS>SUBSTRUCTURE
     1 RES1        1 GROUP             0 ****  ****    0  
@<TRIPOS>MOLECULE
3UNK:A:0BY299
    37    39     1     0     0
SMALL
NO_CHARGES
****
Generated from the CSD

@<TRIPOS>ATOM
     1 N1      30.3494   5.4170  66.3146   N.pl3     1 RES1   0.0000
     2 N2      28.4814   5.8740  64.8696   N.2       1 RES1   0.0000
     3 N3      28.8784   3.7030  65.6236   N.2       1 RES1   0.0000
     4 N4      26.6224   6.4220  63.4185   N.pl3     1 RES1   0.0000
     5 C5      31.3014   8.9140  65.2806   C.2       1 RES1   0.0000
     6 C6      32.1594   9.2300  66.3456   C.2       1 RES1   0.0000
     7 C7      32.3964   8.2970  67.3376   C.2       1 RES1   0.0000
     8 C8      31.7834   7.0620  67.2926   C.2       1 RES1   0.0000
     9 C9      30.9184   6.7340  66.2596   C.2       1 RES1   0.0000
    10 C10     30.6664   7.6670  65.2426   C.2       1 RES1   0.0000
    11 C11     32.8695  10.5430  66.4686   C.2       1 RES1   0.0000
    12 C12     29.1994   4.9960  65.5746   C.2       1 RES1   0.0000
    13 C13     27.3914   5.4810  64.1736   C.2       1 RES1   0.0000
    14 C14     27.0484   4.1340  64.2156   C.2       1 RES1   0.0000
    15 C15     27.8134   3.2350  64.9576   C.2       1 RES1   0.0000
    16 C16     25.4013   6.0540  62.7455   C.2       1 RES1   0.0000
    17 C17     24.3543   5.4570  63.4455   C.2       1 RES1   0.0000
    18 C18     23.1923   5.1240  62.7705   C.2       1 RES1   0.0000
    19 C19     23.0423   5.3980  61.4135   C.2       1 RES1   0.0000
    20 C20     24.0723   6.0040  60.7155   C.2       1 RES1   0.0000
    21 C21     25.2453   6.3280  61.3875   C.2       1 RES1   0.0000
    22 O22     32.5194  11.5210  65.7566   O.2       1 RES1   0.0000
    23 O23     33.8355  10.6620  67.2796   O.3       1 RES1   0.0000
    24 Cl24    26.5294   7.0840  60.5255   Cl        1 RES1   0.0000
    25 H1      34.5533  10.0205  67.0359   H         1 RES1   0.0000
    26 H2      23.9653   6.2240  59.6543   H         1 RES1   0.0000
    27 H3      27.5521   2.1785  64.9952   H         1 RES1   0.0000
    28 H4      24.4492   5.2548  64.5113   H         1 RES1   0.0000
    29 H5      22.3807   4.6389  63.3107   H         1 RES1   0.0000
    30 H6      22.1168   5.1361  60.9028   H         1 RES1   0.0000
    31 H7      26.9475   7.3814  63.3543   H         1 RES1   0.0000
    32 H8      31.9814   6.3350  68.0788   H         1 RES1   0.0000
    33 H9      26.1777   3.7794  63.6660   H         1 RES1   0.0000
    34 H10     31.1300   9.6378  64.4852   H         1 RES1   0.0000
    35 H11     33.0702   8.5380  68.1585   H         1 RES1   0.0000
    36 H12     29.9828   7.4233  64.4307   H         1 RES1   0.0000
    37 H13     30.7946   4.7361  66.9216   H         1 RES1   0.0000
@<TRIPOS>BOND
     1     1     9    1
     2     1    12    1
     3     2    12    2
     4     2    13    1
     5     3    12    1
     6     3    15    2
     7     4    13    1
     8     4    16    1
     9     5     6    2
    10     5    10    1
    11     6     7    1
    12     6    11    1
    13     7     8    2
    14     8     9    1
    15     9    10    2
    16    11    22    2
    17    11    23    1
    18    13    14    2
    19    14    15    1
    20    16    17    2
    21    16    21    1
    22    17    18    1
    23    18    19    2
    24    19    20    1
    25    20    21    2
    26    21    24    1
    27    23    25    1
    28    20    26    1
    29    15    27    1
    30    17    28    1
    31    18    29    1
    32    19    30    1
    33     4    31    1
    34     8    32    1
    35    14    33    1
    36     5    34    1
    37     7    35    1
    38    10    36    1
    39     1    37    1
@<TRIPOS>SUBSTRUCTURE
     1 RES1        1 GROUP             0 ****  ****    0  
@<TRIPOS>MOLECULE
3UNJ:A:0BX299
    37    39     1     0     0
SMALL
NO_CHARGES
****
Generated from the CSD

@<TRIPOS>ATOM
     1 C1      32.1871   9.0863  66.5338   C.2       1 RES1   0.0000
     2 C2      32.9231  10.3753  66.6948   C.2       1 RES1   0.0000
     3 C3      32.3731   8.1352  67.5168   C.2       1 RES1   0.0000
     4 C4      31.7341   6.9152  67.4548   C.2       1 RES1   0.0000
     5 C5      30.8871   6.6362  66.3968   C.2       1 RES1   0.0000
     6 C6      30.6861   7.5872  65.3908   C.2       1 RES1   0.0000
     7 C7      31.3411   8.8232  65.4558   C.2       1 RES1   0.0000
     8 N8      30.2761   5.3432  66.4308   N.pl3     1 RES1   0.0000
     9 C9      29.1881   4.9171  65.6108   C.2       1 RES1   0.0000
    10 N10     28.8531   3.6221  65.5988   N.2       1 RES1   0.0000
    11 C11     27.8391   3.1721  64.8398   C.2       1 RES1   0.0000
    12 C12     27.1491   4.0921  64.0467   C.2       1 RES1   0.0000
    13 C13     27.5161   5.4402  64.0757   C.2       1 RES1   0.0000
    14 N14     28.5321   5.8132  64.8718   N.2       1 RES1   0.0000
    15 N15     26.8751   6.4512  63.2867   N.pl3     1 RES1   0.0000
    16 C16     25.6911   6.2632  62.5037   C.2       1 RES1   0.0000
    17 C17     24.5651   5.6692  63.0577   C.2       1 RES1   0.0000
    18 C18     23.4041   5.4902  62.3147   C.2       1 RES1   0.0000
    19 C19     23.3541   5.9362  60.9987   C.2       1 RES1   0.0000
    20 C20     24.4801   6.5512  60.4566   C.2       1 RES1   0.0000
    21 C21     25.6501   6.7182  61.1927   C.2       1 RES1   0.0000
    22 O22     33.9191  10.4143  67.4798   O.3       1 RES1   0.0000
    23 O23     32.5621  11.4143  66.0758   O.2       1 RES1   0.0000
    24 H1      22.4516   5.8071  60.4031   H         1 RES1   0.0000
    25 H2      24.4444   6.9111  59.4294   H         1 RES1   0.0000
    26 H3      26.5199   7.1984  60.7468   H         1 RES1   0.0000
    27 H4      34.6077   9.7679  67.1732   H         1 RES1   0.0000
    28 H5      22.5383   5.0032  62.7609   H         1 RES1   0.0000
    29 H6      24.5920   5.3371  64.0945   H         1 RES1   0.0000
    30 H7      27.5629   2.1187  64.8431   H         1 RES1   0.0000
    31 H8      27.2947   7.3754  63.2828   H         1 RES1   0.0000
    32 H9      31.1923   9.5686  64.6760   H         1 RES1   0.0000
    33 H10     30.0206   7.3665  64.5575   H         1 RES1   0.0000
    34 H11     31.8954   6.1736  68.2358   H         1 RES1   0.0000
    35 H12     33.0348   8.3519  68.3541   H         1 RES1   0.0000
    36 H13     26.3303   3.7608  63.4098   H         1 RES1   0.0000
    37 H14     30.6479   4.6714  67.0946   H         1 RES1   0.0000
@<TRIPOS>BOND
     1     1     2    1
     2     1     3    2
     3     1     7    1
     4     2    22    1
     5     2    23    2
     6     3     4    1
     7     4     5    2
     8     5     6    1
     9     5     8    1
    10     6     7    2
    11     8     9    1
    12     9    10    2
    13     9    14    1
    14    10    11    1
    15    11    12    2
    16    12    13    1
    17    13    14    2
    18    13    15    1
    19    15    16    1
    20    16    17    2
    21    16    21    1
    22    17    18    1
    23    18    19    2
    24    19    20    1
    25    20    21    2
    26    19    24    1
    27    20    25    1
    28    21    26    1
    29    22    27    1
    30    18    28    1
    31    17    29    1
    32    11    30    1
    33    15    31    1
    34     7    32    1
    35     6    33    1
    36     4    34    1
    37     3    35    1
    38    12    36    1
    39     8    37    1
@<TRIPOS>SUBSTRUCTURE
     1 RES1        1 GROUP             0 ****  ****    0  
@<TRIPOS>MOLECULE
5ANG:A:WY31299
    34    36     1     0     0
SMALL
NO_CHARGES
****
Generated from the CSD

@<TRIPOS>ATOM
     1 C1      25.5708   7.0839  62.3372   C.2       1 RES1   0.0000
     2 C2      26.1848   6.0769  63.1572   C.2       1 RES1   0.0000
     3 C3      26.2288   8.3639  62.2212   C.3       1 RES1   0.0000
     4 C4      24.4358   6.6739  61.5852   C.2       1 RES1   0.0000
     5 C5      25.6608   4.7809  63.2512   C.2       1 RES1   0.0000
     6 C6      27.3298   6.3389  63.9293   C.2       1 RES1   0.0000
     7 N7      25.7038   9.2669  61.1832   N.3       1 RES1   0.0000
     8 C8      23.9128   5.3759  61.7562   C.2       1 RES1   0.0000
     9 O9      24.5428   4.4580  62.5602   O.3       1 RES1   0.0000
    10 C10     26.2358   3.7760  64.0483   C.2       1 RES1   0.0000
    11 C11     27.9338   5.3509  64.7123   C.2       1 RES1   0.0000
    12 C12     26.0728  10.6259  61.6012   C.3       1 RES1   0.0000
    13 C13     26.2848   8.9519  59.8991   C.3       1 RES1   0.0000
    14 O14     22.8968   5.0209  61.1642   O.2       1 RES1   0.0000
    15 C15     27.3688   4.0740  64.7523   C.2       1 RES1   0.0000
    16 C16     25.4158  11.4909  60.6112   C.3       1 RES1   0.0000
    17 C17     25.8838   9.9969  58.8131   C.3       1 RES1   0.0000
    18 O18     27.9498   3.1220  65.4723   O.3       1 RES1   0.0000
    19 O19     26.1128  11.2719  59.3371   O.3       1 RES1   0.0000
    20 H1      23.9717   7.3608  60.8790   H         1 RES1   0.0000
    21 H2      28.2169   2.3733  64.8771   H         1 RES1   0.0000
    22 H3      27.7585   7.3399  63.9171   H         1 RES1   0.0000
    23 H4      25.7894   2.7842  64.1036   H         1 RES1   0.0000
    24 H5      27.1533  10.7591  61.5757   H         1 RES1   0.0000
    25 H6      25.7047  10.8361  62.6043   H         1 RES1   0.0000
    26 H7      24.8301   9.8839  58.5624   H         1 RES1   0.0000
    27 H8      26.4875   9.8508  57.9186   H         1 RES1   0.0000
    28 H9      25.4981  12.5348  60.9103   H         1 RES1   0.0000
    29 H10     24.3647  11.2224  60.5159   H         1 RES1   0.0000
    30 H11     28.8335   5.5739  65.2839   H         1 RES1   0.0000
    31 H12     25.9386   7.9677  59.5869   H         1 RES1   0.0000
    32 H13     27.3695   8.9414  59.9954   H         1 RES1   0.0000
    33 H14     27.2796   8.1799  62.0026   H         1 RES1   0.0000
    34 H15     26.1411   8.8719  63.1804   H         1 RES1   0.0000
@<TRIPOS>BOND
     1     1     2    1
     2     1     3    1
     3     1     4    2
     4     2     5    2
     5     2     6    1
     6     3     7    1
     7     4     8    1
     8     5     9    1
     9     5    10    1
    10     6    11    2
    11     7    12    1
    12     7    13    1
    13     8     9    1
    14     8    14    2
    15    10    15    2
    16    11    15    1
    17    12    16    1
    18    13    17    1
    19    15    18    1
    20    16    19    1
    21    17    19    1
    22     4    20    1
    23    18    21    1
    24     6    22    1
    25    10    23    1
    26    12    24    1
    27    12    25    1
    28    17    26    1
    29    17    27    1
    30    16    28    1
    31    16    29    1
    32    11    30    1
    33    13    31    1
    34    13    32    1
    35     3    33    1
    36     3    34    1
@<TRIPOS>SUBSTRUCTURE
     1 RES1        1 GROUP             0 ****  ****    0  
@<TRIPOS>MOLECULE
5JQ8:A:I73301
    57    60     1     0     0
SMALL
NO_CHARGES
****
Generated from the CSD

@<TRIPOS>ATOM
     1 O1      26.0865   9.6141  58.4151   O.3       1 RES1   0.0000
     2 C2      26.0535   9.0101  59.7631   C.3       1 RES1   0.0000
     3 C3      25.0975   7.8201  59.7261   C.3       1 RES1   0.0000
     4 N4      23.7225   8.2921  59.4631   N.3       1 RES1   0.0000
     5 C5      23.1645   9.2811  60.3831   C.3       1 RES1   0.0000
     6 C6      24.1585  10.4581  60.5751   C.3       1 RES1   0.0000
     7 C7      25.6085  10.0261  60.8421   C.3       1 RES1   0.0000
     8 C8      25.6655   9.5291  62.3041   C.3       1 RES1   0.0000
     9 N9      26.9954   9.2921  62.8771   N.pl3     1 RES1   0.0000
    10 C10     27.3604   8.1171  63.4722   C.2       1 RES1   0.0000
    11 C11     28.5964   7.9601  64.1212   C.2       1 RES1   0.0000
    12 C12     29.0064   6.7371  64.7422   C.2       1 RES1   0.0000
    13 N13     28.1504   5.7051  64.7102   N.pl3     1 RES1   0.0000
    14 N14     28.2994   4.3941  65.2352   N.2       1 RES1   0.0000
    15 C15     27.1444   3.7200  64.8892   C.2       1 RES1   0.0000
    16 C16     26.3645   4.6951  64.2272   C.2       1 RES1   0.0000
    17 C17     25.0715   4.7451  63.4702   C.2       1 RES1   0.0000
    18 C18     25.0135   3.8800  62.2011   C.3       1 RES1   0.0000
    19 C19     23.7555   5.0951  64.1632   C.3       1 RES1   0.0000
    20 C20     27.0014   5.8901  64.0822   C.2       1 RES1   0.0000
    21 N21     26.5365   7.0381  63.4582   N.2       1 RES1   0.0000
    22 N22     30.2124   6.6321  65.3542   N.2       1 RES1   0.0000
    23 C23     31.2924   7.5771  64.9592   C.3       1 RES1   0.0000
    24 C24     31.4154   8.7291  65.9612   C.2       1 RES1   0.0000
    25 C25     31.1484  10.0481  65.5922   C.2       1 RES1   0.0000
    26 C26     31.2494  11.1011  66.5312   C.2       1 RES1   0.0000
    27 C27     31.6143  10.8231  67.8712   C.2       1 RES1   0.0000
    28 C28     31.8653   9.4961  68.2262   C.2       1 RES1   0.0000
    29 C29     31.7643   8.4721  67.2792   C.2       1 RES1   0.0000
    30 H1      31.6969  11.6232  68.6053   H         1 RES1   0.0000
    31 H2      31.0465  12.1259  66.2237   H         1 RES1   0.0000
    32 H3      32.1427   9.2561  69.2516   H         1 RES1   0.0000
    33 H4      25.1740   2.8359  62.4658   H         1 RES1   0.0000
    34 H5      24.0371   3.9894  61.7315   H         1 RES1   0.0000
    35 H6      25.7883   4.2017  61.5068   H         1 RES1   0.0000
    36 H7      23.8278   6.0909  64.5980   H         1 RES1   0.0000
    37 H8      22.9455   5.0746  63.4356   H         1 RES1   0.0000
    38 H9      23.5552   4.3692  64.9499   H         1 RES1   0.0000
    39 H10     26.8930   2.6781  65.0820   H         1 RES1   0.0000
    40 H11     31.0650   7.9850  63.9754   H         1 RES1   0.0000
    41 H12     32.2382   7.0388  64.9193   H         1 RES1   0.0000
    42 H13     31.9648   7.4461  67.5842   H         1 RES1   0.0000
    43 H14     30.8580  10.2700  64.5663   H         1 RES1   0.0000
    44 H15     26.2440  10.9066  60.7596   H         1 RES1   0.0000
    45 H16     25.1148   8.5909  62.3536   H         1 RES1   0.0000
    46 H17     25.1692  10.2745  62.9238   H         1 RES1   0.0000
    47 H18     23.1131   7.4807  59.4818   H         1 RES1   0.0000
    48 H19     23.8199  11.0557  61.4202   H         1 RES1   0.0000
    49 H20     24.1450  11.0663  59.6719   H         1 RES1   0.0000
    50 H21     29.2760   8.8104  64.1535   H         1 RES1   0.0000
    51 H22     25.1256   7.3036  60.6844   H         1 RES1   0.0000
    52 H23     25.4023   7.1357  58.9358   H         1 RES1   0.0000
    53 H24     22.9755   8.8095  61.3463   H         1 RES1   0.0000
    54 H25     22.2294   9.6631  59.9762   H         1 RES1   0.0000
    55 H26     27.0512   8.6506  60.0105   H         1 RES1   0.0000
    56 H27     27.6801  10.0399  62.8290   H         1 RES1   0.0000
    57 H28     25.1741   9.9158  58.1652   H         1 RES1   0.0000
@<TRIPOS>BOND
     1     1     2    1
     2     2     3    1
     3     2     7    1
     4     3     4    1
     5     4     5    1
     6     5     6    1
     7     6     7    1
     8     7     8    1
     9     8     9    1
    10     9    10    1
    11    10    11    2
    12    10    21    1
    13    11    12    1
    14    12    13    1
    15    12    22    2
    16    13    14    1
    17    13    20    1
    18    14    15    2
    19    15    16    1
    20    16    17    2
    21    16    20    1
    22    17    18    1
    23    17    19    1
    24    20    21    2
    25    22    23    1
    26    23    24    1
    27    24    25    2
    28    24    29    1
    29    25    26    1
    30    26    27    2
    31    27    28    1
    32    28    29    2
    33    27    30    1
    34    26    31    1
    35    28    32    1
    36    18    33    1
    37    18    34    1
    38    18    35    1
    39    19    36    1
    40    19    37    1
    41    19    38    1
    42    15    39    1
    43    23    40    1
    44    23    41    1
    45    29    42    1
    46    25    43    1
    47     7    44    1
    48     8    45    1
    49     8    46    1
    50     4    47    1
    51     6    48    1
    52     6    49    1
    53    11    50    1
    54     3    51    1
    55     3    52    1
    56     5    53    1
    57     5    54    1
    58     2    55    1
    59     9    56    1
    60     1    57    1
@<TRIPOS>SUBSTRUCTURE
     1 RES1        1 GROUP             0 ****  ****    0  
@<TRIPOS>MOLECULE
5ANE:A:SZL1299
    17    18     1     0     0
SMALL
NO_CHARGES
****
Generated from the CSD

@<TRIPOS>ATOM
     1 C1      26.6864   5.4139  64.0508   C.2       1 RES1   0.0000
     2 N2      25.7305   4.9239  63.3178   N.2       1 RES1   0.0000
     3 C3      25.6505   3.6199  63.4898   C.2       1 RES1   0.0000
     4 N4      26.5684   3.2489  64.4038   N.pl3     1 RES1   0.0000
     5 C5      27.2024   4.3779  64.7538   C.2       1 RES1   0.0000
     6 N6      28.1974   4.6139  65.6418   N.2       1 RES1   0.0000
     7 C7      28.7044   5.8469  65.8388   C.2       1 RES1   0.0000
     8 N8      28.1614   6.8838  65.0898   N.2       1 RES1   0.0000
     9 C9      27.1454   6.6619  64.2638   C.2       1 RES1   0.0000
    10 O10     26.5804   7.6358  63.5388   O.3       1 RES1   0.0000
    11 C11     27.1034   8.9058  63.7258   C.3       1 RES1   0.0000
    12 H1      26.7433   2.3123  64.7538   H         1 RES1   0.0000
    13 H2      29.5058   6.0232  66.5547   H         1 RES1   0.0000
    14 H3      28.1605   8.9052  63.4643   H         1 RES1   0.0000
    15 H4      26.5728   9.6140  63.0910   H         1 RES1   0.0000
    16 H5      26.9877   9.1960  64.7690   H         1 RES1   0.0000
    17 H6      24.9579   2.9531  62.9784   H         1 RES1   0.0000
@<TRIPOS>BOND
     1     1     2    1
     2     1     5    2
     3     1     9    1
     4     2     3    2
     5     3     4    1
     6     4     5    1
     7     5     6    1
     8     6     7    2
     9     7     8    1
    10     8     9    2
    11     9    10    1
    12    10    11    1
    13     4    12    1
    14     7    13    1
    15    11    14    1
    16    11    15    1
    17    11    16    1
    18     3    17    1
@<TRIPOS>SUBSTRUCTURE
     1 RES1        1 GROUP             0 ****  ****    0  
@<TRIPOS>MOLECULE
3TI1:A:B49299
    56    58     1     0     0
SMALL
NO_CHARGES
****
Generated from the CSD

@<TRIPOS>ATOM
     1 C1      31.9296   7.4897  66.8434   C.3       1 RES1   0.0000
     2 C2      24.1145   3.3659  62.2923   C.2       1 RES1   0.0000
     3 C3      25.0105   2.7799  63.2053   C.2       1 RES1   0.0000
     4 C4      25.3085   5.4698  62.5013   C.2       1 RES1   0.0000
     5 C5      29.6216   8.6297  64.0923   C.2       1 RES1   0.0000
     6 C6      24.2635   4.7108  61.9433   C.2       1 RES1   0.0000
     7 C7      26.1915   4.8778  63.4153   C.2       1 RES1   0.0000
     8 C8      27.3305   5.4288  64.1173   C.2       1 RES1   0.0000
     9 C9      27.8775   4.4049  64.9113   C.2       1 RES1   0.0000
    10 C10     31.7456  10.0217  64.7463   C.2       1 RES1   0.0000
    11 C11     29.1125   9.5237  62.9923   C.3       1 RES1   0.0000
    12 C12     27.7255   6.9058  63.9093   C.2       1 RES1   0.0000
    13 C13     30.8486   7.7267  65.7813   C.2       1 RES1   0.0000
    14 C14     26.0695   3.5649  63.7723   C.2       1 RES1   0.0000
    15 C15     29.0165   7.4367  64.5173   C.2       1 RES1   0.0000
    16 C16     30.7746   8.8217  64.8633   C.2       1 RES1   0.0000
    17 N17     29.7766   6.9008  65.5523   N.pl3     1 RES1   0.0000
    18 N18     27.1225   3.2819  64.6983   N.am      1 RES1   0.0000
    19 N19     31.2236  11.3726  64.5333   N.am      1 RES1   0.0000
    20 O20     28.9715   4.4888  65.7473   O.2       1 RES1   0.0000
    21 O21     32.9876   9.8407  64.8493   O.2       1 RES1   0.0000
    22 F22     23.4434   5.3088  61.0952   F         1 RES1   0.0000
    23 C23     32.1266  12.4756  64.4393   C.3       1 RES1   0.0000
    24 C24     31.9136  13.5395  63.3883   C.3       1 RES1   0.0000
    25 N25     31.6446  13.1386  62.0033   N.3       1 RES1   0.0000
    26 C26     30.4136  13.7065  61.5263   C.3       1 RES1   0.0000
    27 C27     32.7266  13.5055  61.1513   C.3       1 RES1   0.0000
    28 C28     32.8446  14.9725  60.7252   C.3       1 RES1   0.0000
    29 C29     29.6406  14.6355  62.4023   C.3       1 RES1   0.0000
    30 H1      29.5724   6.0425  66.0541   H         1 RES1   0.0000
    31 H2      27.2864   2.3800  65.1342   H         1 RES1   0.0000
    32 H3      30.2234  11.5251  64.4527   H         1 RES1   0.0000
    33 H4      33.1170  12.0570  64.2665   H         1 RES1   0.0000
    34 H5      32.1088  12.9794  65.4046   H         1 RES1   0.0000
    35 H6      32.8125  14.1540  63.3720   H         1 RES1   0.0000
    36 H7      31.0675  14.1427  63.7142   H         1 RES1   0.0000
    37 H8      29.7531  12.8742  61.2877   H         1 RES1   0.0000
    38 H9      30.6504  14.2546  60.6156   H         1 RES1   0.0000
    39 H10     32.6388  12.9111  60.2431   H         1 RES1   0.0000
    40 H11     33.6485  13.2439  61.6686   H         1 RES1   0.0000
    41 H12     32.9566  15.5992  61.6087   H         1 RES1   0.0000
    42 H13     33.7140  15.0946  60.0809   H         1 RES1   0.0000
    43 H14     31.9470  15.2664  60.1831   H         1 RES1   0.0000
    44 H15     30.2559  15.5001  62.6468   H         1 RES1   0.0000
    45 H16     28.7433  14.9645  61.8802   H         1 RES1   0.0000
    46 H17     29.3586  14.1197  63.3190   H         1 RES1   0.0000
    47 H18     27.0828   7.5665  63.3294   H         1 RES1   0.0000
    48 H19     25.4313   6.5156  62.2236   H         1 RES1   0.0000
    49 H20     28.1132   9.8759  63.2440   H         1 RES1   0.0000
    50 H21     29.7802  10.3765  62.8794   H         1 RES1   0.0000
    51 H22     29.0760   8.9651  62.0582   H         1 RES1   0.0000
    52 H23     23.3089   2.7743  61.8598   H         1 RES1   0.0000
    53 H24     24.9005   1.7322  63.4812   H         1 RES1   0.0000
    54 H25     31.9445   8.3272  67.5393   H         1 RES1   0.0000
    55 H26     31.7105   6.5710  67.3856   H         1 RES1   0.0000
    56 H27     32.9012   7.4026  66.3593   H         1 RES1   0.0000
@<TRIPOS>BOND
     1     1    13    1
     2     2     3    2
     3     2     6    1
     4     3    14    1
     5     4     6    2
     6     4     7    1
     7     5    11    1
     8     5    15    2
     9     5    16    1
    10     6    22    1
    11     7     8    1
    12     7    14    2
    13     8     9    1
    14     8    12    2
    15     9    18   am
    16     9    20    2
    17    10    16    1
    18    10    19   am
    19    10    21    2
    20    12    15    1
    21    13    16    2
    22    13    17    1
    23    14    18    1
    24    15    17    1
    25    19    23    1
    26    23    24    1
    27    24    25    1
    28    25    26    1
    29    25    27    1
    30    26    29    1
    31    27    28    1
    32    17    30    1
    33    18    31    1
    34    19    32    1
    35    23    33    1
    36    23    34    1
    37    24    35    1
    38    24    36    1
    39    26    37    1
    40    26    38    1
    41    27    39    1
    42    27    40    1
    43    28    41    1
    44    28    42    1
    45    28    43    1
    46    29    44    1
    47    29    45    1
    48    29    46    1
    49    12    47    1
    50     4    48    1
    51    11    49    1
    52    11    50    1
    53    11    51    1
    54     2    52    1
    55     3    53    1
    56     1    54    1
    57     1    55    1
    58     1    56    1
@<TRIPOS>SUBSTRUCTURE
     1 RES1        1 GROUP             0 ****  ****    0  
@<TRIPOS>MOLECULE
1E1X:A:NW1401
    35    36     1     0     0
SMALL
NO_CHARGES
****
Generated from the CSD

@<TRIPOS>ATOM
     1 N1      28.9005   6.5159  65.1542   N.2       1 RES1   0.0000
     2 C2      27.9635   6.4269  64.1732   C.2       1 RES1   0.0000
     3 O3      27.6695   7.5919  63.4611   O.3       1 RES1   0.0000
     4 C4      28.5945   8.6919  63.6811   C.3       1 RES1   0.0000
     5 C5      28.2895   9.7029  62.5741   C.3       1 RES1   0.0000
     6 C6      26.7775   9.8699  62.3181   C.3       1 RES1   0.0000
     7 C7      26.5665  10.8249  61.1061   C.3       1 RES1   0.0000
     8 C8      27.2265  12.2079  61.4381   C.3       1 RES1   0.0000
     9 C9      28.7585  11.9699  61.5431   C.3       1 RES1   0.0000
    10 C10     28.9875  11.0729  62.8031   C.3       1 RES1   0.0000
    11 C11     27.2865   5.1319  63.8581   C.2       1 RES1   0.0000
    12 N12     26.3315   5.1819  62.7671   N.2       1 RES1   0.0000
    13 O13     25.7315   4.1350  62.4731   O.2       1 RES1   0.0000
    14 C14     27.6615   4.0720  64.5752   C.2       1 RES1   0.0000
    15 N15     27.1595   2.8880  64.3792   N.pl3     1 RES1   0.0000
    16 N16     28.6715   4.2970  65.6192   N.2       1 RES1   0.0000
    17 C17     29.2585   5.3829  65.8812   C.2       1 RES1   0.0000
    18 N18     30.1784   5.5359  66.7992   N.pl3     1 RES1   0.0000
    19 H1      29.6242   8.3450  63.6078   H         1 RES1   0.0000
    20 H2      28.4306   9.1380  64.6609   H         1 RES1   0.0000
    21 H3      26.8419  12.5880  62.3834   H         1 RES1   0.0000
    22 H4      27.0131  12.9235  60.6454   H         1 RES1   0.0000
    23 H5      28.7123   9.2923  61.6584   H         1 RES1   0.0000
    24 H6      26.3028  10.2929  63.2022   H         1 RES1   0.0000
    25 H7      26.3358   8.8991  62.0982   H         1 RES1   0.0000
    26 H8      25.5009  10.9605  60.9270   H         1 RES1   0.0000
    27 H9      27.0325  10.3996  60.2185   H         1 RES1   0.0000
    28 H10     29.2790  12.9195  61.6586   H         1 RES1   0.0000
    29 H11     29.1218  11.4631  60.6503   H         1 RES1   0.0000
    30 H12     30.0550  10.9194  62.9544   H         1 RES1   0.0000
    31 H13     28.5627  11.5583  63.6805   H         1 RES1   0.0000
    32 H14     27.4702   2.1050  64.9454   H         1 RES1   0.0000
    33 H15     26.4572   2.7472  63.6601   H         1 RES1   0.0000
    34 H16     30.4755   4.7418  67.3572   H         1 RES1   0.0000
    35 H17     30.5948   6.4486  66.9532   H         1 RES1   0.0000
@<TRIPOS>BOND
     1     1     2    2
     2     1    17    1
     3     2     3    1
     4     2    11    1
     5     3     4    1
     6     4     5    1
     7     5     6    1
     8     5    10    1
     9     6     7    1
    10     7     8    1
    11     8     9    1
    12     9    10    1
    13    11    12    1
    14    11    14    2
    15    12    13    2
    16    14    15    1
    17    14    16    1
    18    16    17    2
    19    17    18    1
    20     4    19    1
    21     4    20    1
    22     8    21    1
    23     8    22    1
    24     5    23    1
    25     6    24    1
    26     6    25    1
    27     7    26    1
    28     7    27    1
    29     9    28    1
    30     9    29    1
    31    10    30    1
    32    10    31    1
    33    15    32    1
    34    15    33    1
    35    18    34    1
    36    18    35    1
@<TRIPOS>SUBSTRUCTURE
     1 RES1        1 GROUP             0 ****  ****    0  
@<TRIPOS>MOLECULE
3RAL:A:04Z499
    43    45     1     0     0
SMALL
NO_CHARGES
****
Generated from the CSD

@<TRIPOS>ATOM
     1 C1      24.5380   8.5159  60.5747   C.2       1 RES1   0.0000
     2 N2      28.3140   4.3190  65.4048   N.2       1 RES1   0.0000
     3 O3      34.4810  10.1079  64.0188   O.2       1 RES1   0.0000
     4 S4      27.6510   6.4579  64.1128   S.3       1 RES1   0.0000
     5 C5      23.5470   7.9139  61.4637   C.2       1 RES1   0.0000
     6 N6      26.7380   2.7380  64.6438   N.pl3     1 RES1   0.0000
     7 O7      33.8380  11.2249  66.3608   O.2       1 RES1   0.0000
     8 S8      33.2770  10.6669  64.9308   S.o2      1 RES1   0.0000
     9 C9      23.8790   6.7449  62.2357   C.2       1 RES1   0.0000
    10 N10     29.7090   6.1069  65.9478   N.pl3     1 RES1   0.0000
    11 O11     24.9290   3.7820  62.8057   O.2       1 RES1   0.0000
    12 C12     26.1970   6.7689  61.2357   C.2       1 RES1   0.0000
    13 N13     32.5430  11.8009  64.1568   N.pl3     1 RES1   0.0000
    14 C14     25.8790   7.9309  60.4617   C.2       1 RES1   0.0000
    15 O15     22.2620   8.4569  61.5947   O.3       1 RES1   0.0000
    16 C16     21.8390   9.5389  60.9397   C.3       1 RES1   0.0000
    17 C17     25.2120   6.1559  62.1337   C.2       1 RES1   0.0000
    18 C18     25.6000   4.9489  62.9297   C.2       1 RES1   0.0000
    19 C19     26.7610   5.0219  63.8728   C.2       1 RES1   0.0000
    20 C20     27.2490   3.9840  64.6418   C.2       1 RES1   0.0000
    21 C21     28.6480   5.6039  65.2378   C.2       1 RES1   0.0000
    22 C22     30.5120   7.1979  65.6708   C.2       1 RES1   0.0000
    23 C23     30.3550   8.0689  64.4788   C.2       1 RES1   0.0000
    24 C24     31.2190   9.1609  64.2478   C.2       1 RES1   0.0000
    25 C25     32.2780   9.4409  65.1918   C.2       1 RES1   0.0000
    26 C26     32.4460   8.6039  66.3748   C.2       1 RES1   0.0000
    27 C27     31.5790   7.5029  66.6108   C.2       1 RES1   0.0000
    28 H1      29.9375   5.6053  66.8001   H         1 RES1   0.0000
    29 H2      27.1909   6.3310  61.1561   H         1 RES1   0.0000
    30 H3      23.1362   6.2996  62.8959   H         1 RES1   0.0000
    31 H4      24.2808   9.4009  59.9946   H         1 RES1   0.0000
    32 H5      25.9377   2.5168  64.0601   H         1 RES1   0.0000
    33 H6      27.1532   2.0201  65.2290   H         1 RES1   0.0000
    34 H7      31.7510  12.2739  64.5801   H         1 RES1   0.0000
    35 H8      32.8565  12.0672  63.2289   H         1 RES1   0.0000
    36 H9      31.0892   9.7871  63.3663   H         1 RES1   0.0000
    37 H10     29.5567   7.8610  63.7679   H         1 RES1   0.0000
    38 H11     33.2429   8.8248  67.0834   H         1 RES1   0.0000
    39 H12     31.7140   6.8859  67.4979   H         1 RES1   0.0000
    40 H13     21.8964   9.3595  59.8671   H         1 RES1   0.0000
    41 H14     20.8077   9.7513  61.2175   H         1 RES1   0.0000
    42 H15     22.4675  10.3894  61.1996   H         1 RES1   0.0000
    43 H16     26.6212   8.3738  59.7992   H         1 RES1   0.0000
@<TRIPOS>BOND
     1     1     5    2
     2     1    14    1
     3     2    20    1
     4     2    21    2
     5     3     8    2
     6     4    19    1
     7     4    21    1
     8     5     9    1
     9     5    15    1
    10     6    20    1
    11     7     8    2
    12     8    13    1
    13     8    25    1
    14     9    17    2
    15    10    21    1
    16    10    22    1
    17    11    18    2
    18    12    14    2
    19    12    17    1
    20    15    16    1
    21    17    18    1
    22    18    19    1
    23    19    20    2
    24    22    23    2
    25    22    27    1
    26    23    24    1
    27    24    25    2
    28    25    26    1
    29    26    27    2
    30    10    28    1
    31    12    29    1
    32     9    30    1
    33     1    31    1
    34     6    32    1
    35     6    33    1
    36    13    34    1
    37    13    35    1
    38    24    36    1
    39    23    37    1
    40    26    38    1
    41    27    39    1
    42    16    40    1
    43    16    41    1
    44    16    42    1
    45    14    43    1
@<TRIPOS>SUBSTRUCTURE
     1 RES1        1 GROUP             0 ****  ****    0  
@<TRIPOS>MOLECULE
5ANI:A:ES41299
    13    14     1     0     0
SMALL
NO_CHARGES
****
Generated from the CSD

@<TRIPOS>ATOM
     1 C1      26.8535   5.4098  64.1309   C.2       1 RES1   0.0000
     2 Cl2     26.7645   7.9888  63.5349   Cl        1 RES1   0.0000
     3 C3      27.3685   6.6458  64.3339   C.2       1 RES1   0.0000
     4 N4      28.3775   6.9098  65.1829   N.2       1 RES1   0.0000
     5 C5      28.9365   5.8388  65.8759   C.2       1 RES1   0.0000
     6 N6      28.3465   4.5829  65.6789   N.2       1 RES1   0.0000
     7 C7      27.3415   4.3799  64.8409   C.2       1 RES1   0.0000
     8 N8      26.6985   3.2689  64.4899   N.pl3     1 RES1   0.0000
     9 C9      25.7405   3.6039  63.5909   C.2       1 RES1   0.0000
    10 N10     25.8545   4.9229  63.3759   N.2       1 RES1   0.0000
    11 H1      26.8915   2.3341  64.8349   H         1 RES1   0.0000
    12 H2      25.0175   2.9314  63.1317   H         1 RES1   0.0000
    13 H3      29.7905   5.9708  66.5386   H         1 RES1   0.0000
@<TRIPOS>BOND
     1     1     3    2
     2     1     7    1
     3     1    10    1
     4     2     3    1
     5     3     4    1
     6     4     5    2
     7     5     6    1
     8     6     7    2
     9     7     8    1
    10     8     9    1
    11     9    10    2
    12     8    11    1
    13     9    12    1
    14     5    13    1
@<TRIPOS>SUBSTRUCTURE
     1 RES1        1 GROUP             0 ****  ****    0  
@<TRIPOS>MOLECULE
3TIY:A:TIY311
    24    25     1     0     0
SMALL
NO_CHARGES
****
Generated from the CSD

@<TRIPOS>ATOM
     1 C1      28.0719   6.1701  64.6684   C.2       1 RES1   0.0000
     2 C2      27.6409   4.8341  64.7034   C.2       1 RES1   0.0000
     3 O3      26.2749   3.1320  64.0774   O.3       1 RES1   0.0000
     4 C4      26.5559   4.4441  63.9184   C.2       1 RES1   0.0000
     5 C5      25.8399   5.3421  63.0474   C.2       1 RES1   0.0000
     6 C6      26.2999   6.7071  63.0154   C.2       1 RES1   0.0000
     7 C7      25.7709   7.7851  62.2584   C.2       1 RES1   0.0000
     8 C8      24.7089   7.8351  61.3525   C.2       1 RES1   0.0000
     9 C9      23.8639   6.8051  60.9685   C.2       1 RES1   0.0000
    10 C10     23.8739   5.4691  61.3765   C.2       1 RES1   0.0000
    11 C11     24.7429   4.8191  62.2924   C.2       1 RES1   0.0000
    12 O12     24.4629   3.5910  62.4234   O.2       1 RES1   0.0000
    13 O13     22.8839   4.7491  60.7655   O.3       1 RES1   0.0000
    14 C14     27.4089   7.0811  63.8364   C.2       1 RES1   0.0000
    15 O15     29.1189   6.5941  65.4084   O.3       1 RES1   0.0000
    16 O16     28.2399   3.8971  65.4854   O.3       1 RES1   0.0000
    17 H1      26.2801   8.7357  62.4098   H         1 RES1   0.0000
    18 H2      24.5213   8.8032  60.8905   H         1 RES1   0.0000
    19 H3      23.0883   7.0736  60.2528   H         1 RES1   0.0000
    20 H4      26.0541   2.9537  65.0290   H         1 RES1   0.0000
    21 H5      23.0132   4.7774  59.7814   H         1 RES1   0.0000
    22 H6      27.7515   8.1146  63.8140   H         1 RES1   0.0000
    23 H7      29.9331   6.0873  65.1509   H         1 RES1   0.0000
    24 H8      28.1777   4.1718  66.4376   H         1 RES1   0.0000
@<TRIPOS>BOND
     1     1     2    2
     2     1    14    1
     3     1    15    1
     4     2     4    1
     5     2    16    1
     6     3     4    1
     7     4     5    2
     8     5     6    1
     9     5    11    1
    10     6     7    1
    11     6    14    2
    12     7     8    2
    13     8     9    1
    14     9    10    2
    15    10    11    1
    16    10    13    1
    17    11    12    2
    18     7    17    1
    19     8    18    1
    20     9    19    1
    21     3    20    1
    22    13    21    1
    23    14    22    1
    24    15    23    1
    25    16    24    1
@<TRIPOS>SUBSTRUCTURE
     1 RES1        1 GROUP             0 ****  ****    0  
@<TRIPOS>MOLECULE
3S1H:A:56Z479
    43    45     1     0     0
SMALL
NO_CHARGES
****
Generated from the CSD

@<TRIPOS>ATOM
     1 C1      24.4190   8.4601  60.6524   C.2       1 RES1   0.0000
     2 N2      28.4310   4.1990  65.3582   N.2       1 RES1   0.0000
     3 O3      34.4560  10.0881  64.0893   O.2       1 RES1   0.0000
     4 S4      27.6900   6.3680  64.1593   S.3       1 RES1   0.0000
     5 C5      23.3920   7.7001  61.4123   C.2       1 RES1   0.0000
     6 N6      26.8840   2.6030  64.5653   N.pl3     1 RES1   0.0000
     7 O7      33.7990  11.2161  66.3872   O.2       1 RES1   0.0000
     8 S8      33.2640  10.6531  64.9752   S.o2      1 RES1   0.0000
     9 C9      23.7640   6.5010  62.1723   C.2       1 RES1   0.0000
    10 N10     29.7990   5.9980  65.9472   N.pl3     1 RES1   0.0000
    11 O11     25.0180   3.6420  62.7963   O.2       1 RES1   0.0000
    12 C12     26.1840   6.8161  61.4053   C.2       1 RES1   0.0000
    13 N13     32.5280  11.7821  64.1683   N.pl3     1 RES1   0.0000
    14 C14     25.8330   7.9951  60.6564   C.2       1 RES1   0.0000
    15 O15     24.0770   9.6051  59.9344   O.3       1 RES1   0.0000
    16 C16     24.9270  10.3721  59.2134   C.3       1 RES1   0.0000
    17 C17     25.1780   6.0450  62.1803   C.2       1 RES1   0.0000
    18 C18     25.6400   4.8320  62.9383   C.2       1 RES1   0.0000
    19 C19     26.8300   4.9150  63.8753   C.2       1 RES1   0.0000
    20 C20     27.3640   3.8660  64.6003   C.2       1 RES1   0.0000
    21 C21     28.7320   5.4900  65.2372   C.2       1 RES1   0.0000
    22 C22     30.5630   7.1051  65.6762   C.2       1 RES1   0.0000
    23 C23     30.3600   8.0191  64.4813   C.2       1 RES1   0.0000
    24 C24     31.1980   9.1351  64.2623   C.2       1 RES1   0.0000
    25 C25     32.2830   9.4071  65.2152   C.2       1 RES1   0.0000
    26 C26     32.4900   8.5361  66.3822   C.2       1 RES1   0.0000
    27 C27     31.6510   7.4091  66.6132   C.2       1 RES1   0.0000
    28 H1      26.5935   8.5403  60.0993   H         1 RES1   0.0000
    29 H2      29.5534   7.8106  63.7799   H         1 RES1   0.0000
    30 H3      31.8161   6.7745  67.4827   H         1 RES1   0.0000
    31 H4      33.2967   8.7564  67.0798   H         1 RES1   0.0000
    32 H5      31.0424   9.7833  63.4012   H         1 RES1   0.0000
    33 H6      23.0075   5.9483  62.7275   H         1 RES1   0.0000
    34 H7      30.0540   5.4832  66.7840   H         1 RES1   0.0000
    35 H8      27.2196   6.4791  61.4035   H         1 RES1   0.0000
    36 H9      31.7335  12.2630  64.5779   H         1 RES1   0.0000
    37 H10     32.8469  12.0308  63.2374   H         1 RES1   0.0000
    38 H11     25.3838   9.7695  58.4297   H         1 RES1   0.0000
    39 H12     24.3779  11.1976  58.7630   H         1 RES1   0.0000
    40 H13     25.7035  10.7665  59.8672   H         1 RES1   0.0000
    41 H14     26.0803   2.3814  63.9864   H         1 RES1   0.0000
    42 H15     27.3273   1.8761  65.1179   H         1 RES1   0.0000
    43 H16     22.3560   8.0356  61.4050   H         1 RES1   0.0000
@<TRIPOS>BOND
     1     1     5    2
     2     1    14    1
     3     1    15    1
     4     2    20    1
     5     2    21    2
     6     3     8    2
     7     4    19    1
     8     4    21    1
     9     5     9    1
    10     6    20    1
    11     7     8    2
    12     8    13    1
    13     8    25    1
    14     9    17    2
    15    10    21    1
    16    10    22    1
    17    11    18    2
    18    12    14    2
    19    12    17    1
    20    15    16    1
    21    17    18    1
    22    18    19    1
    23    19    20    2
    24    22    23    2
    25    22    27    1
    26    23    24    1
    27    24    25    2
    28    25    26    1
    29    26    27    2
    30    14    28    1
    31    23    29    1
    32    27    30    1
    33    26    31    1
    34    24    32    1
    35     9    33    1
    36    10    34    1
    37    12    35    1
    38    13    36    1
    39    13    37    1
    40    16    38    1
    41    16    39    1
    42    16    40    1
    43     6    41    1
    44     6    42    1
    45     5    43    1
@<TRIPOS>SUBSTRUCTURE
     1 RES1        1 GROUP             0 ****  ****    0  
@<TRIPOS>MOLECULE
1OIR:A:HDY1298
    57    60     1     0     0
SMALL
NO_CHARGES
****
Generated from the CSD

@<TRIPOS>ATOM
     1 C1      24.4164   4.8910  61.9072   C.3       1 RES1   0.0000
     2 C2      24.9664   6.2590  62.1812   C.2       1 RES1   0.0000
     3 N3      24.5314   7.3720  61.5862   N.2       1 RES1   0.0000
     4 C4      25.2664   8.4250  62.0572   C.2       1 RES1   0.0000
     5 C5      25.1274   9.7550  61.7172   C.2       1 RES1   0.0000
     6 C6      25.9674  10.6720  62.3472   C.2       1 RES1   0.0000
     7 C7      26.9143  10.2580  63.3002   C.2       1 RES1   0.0000
     8 N8      26.2124   8.0460  63.0122   N.pl3     1 RES1   0.0000
     9 C9      27.0263   8.9050  63.6472   C.2       1 RES1   0.0000
    10 C10     26.0564   6.6160  63.1432   C.2       1 RES1   0.0000
    11 C11     26.8733   5.7470  64.0003   C.2       1 RES1   0.0000
    12 C12     26.5313   4.4280  64.2793   C.2       1 RES1   0.0000
    13 C13     27.4083   3.6870  65.0653   C.2       1 RES1   0.0000
    14 N14     28.5283   4.2700  65.5203   N.2       1 RES1   0.0000
    15 N15     28.0313   6.2800  64.4523   N.2       1 RES1   0.0000
    16 C16     28.8553   5.5620  65.2263   C.2       1 RES1   0.0000
    17 N17     30.0063   6.0880  65.7153   N.pl3     1 RES1   0.0000
    18 C18     30.4862   7.3630  65.6593   C.2       1 RES1   0.0000
    19 C19     31.1132   7.8390  66.8074   C.2       1 RES1   0.0000
    20 C20     31.6642   9.1230  66.8614   C.2       1 RES1   0.0000
    21 C21     30.4262   8.2050  64.5353   C.2       1 RES1   0.0000
    22 C22     30.9832   9.4970  64.5943   C.2       1 RES1   0.0000
    23 C23     31.5932   9.9790  65.7623   C.2       1 RES1   0.0000
    24 O24     32.1662  11.2551  65.7873   O.3       1 RES1   0.0000
    25 C25     31.7952  12.4361  66.5313   C.3       1 RES1   0.0000
    26 C26     33.0292  13.3341  66.7774   C.3       1 RES1   0.0000
    27 O27     34.1982  12.6871  66.2723   O.3       1 RES1   0.0000
    28 C28     32.9412  14.7311  66.1293   C.3       1 RES1   0.0000
    29 N29     32.0232  15.6871  66.7694   N.3       1 RES1   0.0000
    30 C30     32.7922  16.7221  67.4504   C.3       1 RES1   0.0000
    31 C31     31.2402  16.4031  65.7653   C.3       1 RES1   0.0000
    32 H1      34.0937  12.5285  65.2976   H         1 RES1   0.0000
    33 H2      32.6176  14.5992  65.0979   H         1 RES1   0.0000
    34 H3      33.9388  15.1676  66.1437   H         1 RES1   0.0000
    35 H4      30.6568  15.6906  65.1840   H         1 RES1   0.0000
    36 H5      30.5691  17.1037  66.2601   H         1 RES1   0.0000
    37 H6      31.9109  16.9488  65.1033   H         1 RES1   0.0000
    38 H7      33.1482  13.4634  67.8521   H         1 RES1   0.0000
    39 H8      27.1889   2.6483  65.3080   H         1 RES1   0.0000
    40 H9      30.6054   5.4273  66.1999   H         1 RES1   0.0000
    41 H10     24.5539   4.6486  60.8545   H         1 RES1   0.0000
    42 H11     24.9412   4.1594  62.5197   H         1 RES1   0.0000
    43 H12     23.3546   4.8716  62.1484   H         1 RES1   0.0000
    44 H13     24.3891  10.0764  60.9841   H         1 RES1   0.0000
    45 H14     27.5647  10.9932  63.7716   H         1 RES1   0.0000
    46 H15     25.8886  11.7288  62.0964   H         1 RES1   0.0000
    47 H16     27.7399   8.5660  64.3967   H         1 RES1   0.0000
    48 H17     32.1552   9.4591  67.7735   H         1 RES1   0.0000
    49 H18     31.1761   7.1962  67.6842   H         1 RES1   0.0000
    50 H19     29.9494   7.8584  63.6196   H         1 RES1   0.0000
    51 H20     25.6103   3.9910  63.8964   H         1 RES1   0.0000
    52 H21     30.9395  10.1363  63.7138   H         1 RES1   0.0000
    53 H22     31.3731  12.1374  67.4897   H         1 RES1   0.0000
    54 H23     31.0519  12.9964  65.9661   H         1 RES1   0.0000
    55 H24     33.4148  17.2468  66.7272   H         1 RES1   0.0000
    56 H25     32.1113  17.4283  67.9233   H         1 RES1   0.0000
    57 H26     33.4248  16.2641  68.2093   H         1 RES1   0.0000
@<TRIPOS>BOND
     1     1     2    1
     2     2     3    1
     3     2    10    2
     4     3     4    2
     5     4     5    1
     6     4     8    1
     7     5     6    2
     8     6     7    1
     9     7     9    2
    10     8     9    1
    11     8    10    1
    12    10    11    1
    13    11    12    2
    14    11    15    1
    15    12    13    1
    16    13    14    2
    17    14    16    1
    18    15    16    2
    19    16    17    1
    20    17    18    1
    21    18    19    2
    22    18    21    1
    23    19    20    1
    24    20    23    2
    25    21    22    2
    26    22    23    1
    27    23    24    1
    28    24    25    1
    29    25    26    1
    30    26    27    1
    31    26    28    1
    32    28    29    1
    33    29    30    1
    34    29    31    1
    35    27    32    1
    36    28    33    1
    37    28    34    1
    38    31    35    1
    39    31    36    1
    40    31    37    1
    41    26    38    1
    42    13    39    1
    43    17    40    1
    44     1    41    1
    45     1    42    1
    46     1    43    1
    47     5    44    1
    48     7    45    1
    49     6    46    1
    50     9    47    1
    51    20    48    1
    52    19    49    1
    53    21    50    1
    54    12    51    1
    55    22    52    1
    56    25    53    1
    57    25    54    1
    58    30    55    1
    59    30    56    1
    60    30    57    1
@<TRIPOS>SUBSTRUCTURE
     1 RES1        1 GROUP             0 ****  ****    0  
@<TRIPOS>MOLECULE
3SW4:A:18K299
    41    43     1     0     0
SMALL
NO_CHARGES
****
Generated from the CSD

@<TRIPOS>ATOM
     1 S1      26.8315   7.8199  62.7490   S.3       1 RES1   0.0000
     2 C2      24.1865   4.7769  62.2810   C.3       1 RES1   0.0000
     3 N3      24.5755   7.1439  61.6750   N.2       1 RES1   0.0000
     4 C4      25.0205   6.0119  62.3310   C.2       1 RES1   0.0000
     5 N5      25.1575   9.3889  61.3490   N.pl3     1 RES1   0.0000
     6 C6      25.3995   8.1569  61.8160   C.2       1 RES1   0.0000
     7 N7      28.8556   3.8890  65.3569   N.2       1 RES1   0.0000
     8 C8      26.2485   6.1849  62.9920   C.2       1 RES1   0.0000
     9 N9      30.0866   5.7849  65.6549   N.pl3     1 RES1   0.0000
    10 C10     27.1035   5.3009  63.8029   C.2       1 RES1   0.0000
    11 N11     32.4176  10.9459  65.5209   N.3       1 RES1   0.0000
    12 C12     26.8515   3.9510  64.0099   C.2       1 RES1   0.0000
    13 N13     28.1576   5.9329  64.3419   N.2       1 RES1   0.0000
    14 C14     27.7786   3.3010  64.8099   C.2       1 RES1   0.0000
    15 C15     29.0026   5.1929  65.0929   C.2       1 RES1   0.0000
    16 C16     30.6496   7.0749  65.6029   C.2       1 RES1   0.0000
    17 C17     31.6206   7.4259  66.5399   C.2       1 RES1   0.0000
    18 C18     32.1646   8.6989  66.5429   C.2       1 RES1   0.0000
    19 C19     31.7486   9.6229  65.5869   C.2       1 RES1   0.0000
    20 C20     33.7857  10.8619  64.9249   C.3       1 RES1   0.0000
    21 C21     31.5986  12.0009  64.8559   C.3       1 RES1   0.0000
    22 C22     30.7656   9.2869  64.6529   C.2       1 RES1   0.0000
    23 C23     30.2246   8.0129  64.6679   C.2       1 RES1   0.0000
    24 H1      27.6232   2.2416  65.0084   H         1 RES1   0.0000
    25 H2      32.9111   8.9755  67.2860   H         1 RES1   0.0000
    26 H3      31.9533   6.6938  67.2743   H         1 RES1   0.0000
    27 H4      29.4597   7.7427  63.9414   H         1 RES1   0.0000
    28 H5      30.4286  10.0194  63.9209   H         1 RES1   0.0000
    29 H6      25.9916   3.4420  63.5770   H         1 RES1   0.0000
    30 H7      30.6670  12.1362  65.4034   H         1 RES1   0.0000
    31 H8      32.1530  12.9381  64.8456   H         1 RES1   0.0000
    32 H9      31.3780  11.6984  63.8333   H         1 RES1   0.0000
    33 H10     33.7168  10.4685  63.9118   H         1 RES1   0.0000
    34 H11     34.2320  11.8549  64.8991   H         1 RES1   0.0000
    35 H12     34.4051  10.2011  65.5296   H         1 RES1   0.0000
    36 H13     30.6127   5.1526  66.2496   H         1 RES1   0.0000
    37 H14     24.3189   9.5705  60.8068   H         1 RES1   0.0000
    38 H15     25.8127  10.1408  61.5374   H         1 RES1   0.0000
    39 H16     24.0636   4.4636  61.2453   H         1 RES1   0.0000
    40 H17     24.6772   3.9845  62.8442   H         1 RES1   0.0000
    41 H18     23.2096   4.9807  62.7170   H         1 RES1   0.0000
@<TRIPOS>BOND
     1     1     6    1
     2     1     8    1
     3     2     4    1
     4     3     4    1
     5     3     6    2
     6     4     8    2
     7     5     6    1
     8     7    14    2
     9     7    15    1
    10     8    10    1
    11     9    15    1
    12     9    16    1
    13    10    12    2
    14    10    13    1
    15    11    19    1
    16    11    20    1
    17    11    21    1
    18    12    14    1
    19    13    15    2
    20    16    17    2
    21    16    23    1
    22    17    18    1
    23    18    19    2
    24    19    22    1
    25    22    23    2
    26    14    24    1
    27    18    25    1
    28    17    26    1
    29    23    27    1
    30    22    28    1
    31    12    29    1
    32    21    30    1
    33    21    31    1
    34    21    32    1
    35    20    33    1
    36    20    34    1
    37    20    35    1
    38     9    36    1
    39     5    37    1
    40     5    38    1
    41     2    39    1
    42     2    40    1
    43     2    41    1
@<TRIPOS>SUBSTRUCTURE
     1 RES1        1 GROUP             0 ****  ****    0  
@<TRIPOS>MOLECULE
1OIQ:A:HDU1299
    33    35     1     0     0
SMALL
NO_CHARGES
****
Generated from the CSD

@<TRIPOS>ATOM
     1 O1      29.5136   7.7508  64.1987   O.2       1 RES1   0.0000
     2 C2      30.1356   7.0868  65.0367   C.2       1 RES1   0.0000
     3 C3      31.3776   7.6648  65.6517   C.3       1 RES1   0.0000
     4 N4      29.7526   5.8659  65.4297   N.am      1 RES1   0.0000
     5 C5      28.5776   5.1919  64.9157   C.2       1 RES1   0.0000
     6 N6      27.6375   5.8479  64.0587   N.2       1 RES1   0.0000
     7 N7      28.2946   3.8239  65.2417   N.2       1 RES1   0.0000
     8 C8      27.2135   3.2369  64.7357   C.2       1 RES1   0.0000
     9 C9      26.3755   3.8879  63.9487   C.2       1 RES1   0.0000
    10 C10     26.5715   5.1829  63.6127   C.2       1 RES1   0.0000
    11 C11     25.6305   5.8909  62.6777   C.2       1 RES1   0.0000
    12 N12     25.8855   7.1508  62.0157   N.pl3     1 RES1   0.0000
    13 C13     24.7825   7.4258  61.1988   C.2       1 RES1   0.0000
    14 N14     23.8515   6.3809  61.3127   N.2       1 RES1   0.0000
    15 C15     24.3015   5.4339  62.1697   C.2       1 RES1   0.0000
    16 C16     23.5195   4.1999  62.5167   C.3       1 RES1   0.0000
    17 C17     24.7555   8.5928  60.4388   C.2       1 RES1   0.0000
    18 C18     25.8245   9.4998  60.4858   C.2       1 RES1   0.0000
    19 C19     26.9205   9.2058  61.2947   C.2       1 RES1   0.0000
    20 C20     26.9185   8.0188  62.0487   C.2       1 RES1   0.0000
    21 H1      25.7984  10.4177  59.9004   H         1 RES1   0.0000
    22 H2      23.2984   4.1981  63.5830   H         1 RES1   0.0000
    23 H3      22.5879   4.1900  61.9528   H         1 RES1   0.0000
    24 H4      24.1050   3.3166  62.2659   H         1 RES1   0.0000
    25 H5      23.8970   8.8029  59.8026   H         1 RES1   0.0000
    26 H6      30.3155   5.3866  66.1251   H         1 RES1   0.0000
    27 H7      27.7773   7.7929  62.6790   H         1 RES1   0.0000
    28 H8      27.7686   9.8873  61.3424   H         1 RES1   0.0000
    29 H9      31.1297   8.5908  66.1683   H         1 RES1   0.0000
    30 H10     31.7957   6.9534  66.3623   H         1 RES1   0.0000
    31 H11     32.1081   7.8694  64.8704   H         1 RES1   0.0000
    32 H12     27.0142   2.1936  64.9762   H         1 RES1   0.0000
    33 H13     25.5021   3.3667  63.5595   H         1 RES1   0.0000
@<TRIPOS>BOND
     1     1     2    2
     2     2     3    1
     3     2     4   am
     4     4     5    1
     5     5     6    2
     6     5     7    1
     7     6    10    1
     8     7     8    2
     9     8     9    1
    10     9    10    2
    11    10    11    1
    12    11    12    1
    13    11    15    2
    14    12    13    1
    15    12    20    1
    16    13    14    2
    17    13    17    1
    18    14    15    1
    19    15    16    1
    20    17    18    2
    21    18    19    1
    22    19    20    2
    23    18    21    1
    24    16    22    1
    25    16    23    1
    26    16    24    1
    27    17    25    1
    28     4    26    1
    29    20    27    1
    30    19    28    1
    31     3    29    1
    32     3    30    1
    33     3    31    1
    34     8    32    1
    35     9    33    1
@<TRIPOS>SUBSTRUCTURE
     1 RES1        1 GROUP             0 ****  ****    0  
@<TRIPOS>MOLECULE
3SW7:A:19K299
    44    46     1     0     0
SMALL
USER_CHARGES
****
Generated from the CSD

@<TRIPOS>ATOM
     1 S1      27.0543   7.7340  62.4211   S.3       1 RES1   0.0000
     2 C2      25.6503   9.3010  60.5291   C.3       1 RES1   0.0000
     3 N3      24.7843   7.1500  61.3731   N.2       1 RES1   0.0000
     4 O4      33.0671   8.4820  68.5223   O.3       1 RES1  -1.0000
     5 C5      25.7123   8.0640  61.3671   C.2       1 RES1   0.0000
     6 N6      28.7622   3.9390  65.4382   N.2       1 RES1   0.0000
     7 C7      25.0793   6.1020  62.2291   C.2       1 RES1   0.0000
     8 N8      30.0012   5.8550  65.7322   N.pl3     1 RES1   0.0000
     9 C9      24.0584   5.0310  62.4161   C.3       1 RES1   0.0000
    10 N10     32.0661  11.1540  65.1842   N.3       1 RES1   0.0000
    11 C11     26.3183   6.2240  62.8891   C.2       1 RES1   0.0000
    12 N12     33.0691   9.1550  67.5013   N.pl3     1 RES1   1.0000
    13 C13     27.1253   5.3410  63.7532   C.2       1 RES1   0.0000
    14 N14     28.1662   5.9650  64.3252   N.2       1 RES1   0.0000
    15 C15     26.8353   4.0010  63.9822   C.2       1 RES1   0.0000
    16 C16     27.7113   3.3520  64.8372   C.2       1 RES1   0.0000
    17 C17     28.9512   5.2320  65.1412   C.2       1 RES1   0.0000
    18 C18     30.5632   7.1460  65.6102   C.2       1 RES1   0.0000
    19 C19     30.1722   7.9980  64.5862   C.2       1 RES1   0.0000
    20 C20     30.7082   9.2670  64.4852   C.2       1 RES1   0.0000
    21 C21     31.6512   9.7410  65.3812   C.2       1 RES1   0.0000
    22 C22     33.4891  11.2990  64.7592   C.3       1 RES1   0.0000
    23 C23     31.7312  12.0400  66.3393   C.3       1 RES1   0.0000
    24 C24     32.0891   8.8290  66.4493   C.2       1 RES1   0.0000
    25 C25     31.5062   7.5770  66.5393   C.2       1 RES1   0.0000
    26 O26     33.7261  10.1740  67.3923   O.2       1 RES1   0.0000
    27 H1      33.6407  10.7786  63.8147   H         1 RES1   0.0000
    28 H2      33.7247  12.3548  64.6338   H         1 RES1   0.0000
    29 H3      34.1404  10.8695  65.5189   H         1 RES1   0.0000
    30 H4      32.2328  11.6748  67.2343   H         1 RES1   0.0000
    31 H5      32.0626  13.0552  66.1261   H         1 RES1   0.0000
    32 H6      30.6541  12.0359  66.4996   H         1 RES1   0.0000
    33 H7      31.7915   6.9143  67.3550   H         1 RES1   0.0000
    34 H8      25.9841   3.4993  63.5243   H         1 RES1   0.0000
    35 H9      30.4863   5.2698  66.4049   H         1 RES1   0.0000
    36 H10     26.5031   9.3241  59.8523   H         1 RES1   0.0000
    37 H11     24.7277   9.3017  59.9506   H         1 RES1   0.0000
    38 H12     25.6750  10.1781  61.1742   H         1 RES1   0.0000
    39 H13     27.5375   2.2955  65.0362   H         1 RES1   0.0000
    40 H14     23.8485   4.5582  61.4578   H         1 RES1   0.0000
    41 H15     24.4379   4.2855  63.1133   H         1 RES1   0.0000
    42 H16     23.1433   5.4673  62.8138   H         1 RES1   0.0000
    43 H17     29.4366   7.6630  63.8564   H         1 RES1   0.0000
    44 H18     30.3785   9.9154  63.6748   H         1 RES1   0.0000
@<TRIPOS>BOND
     1     1     5    1
     2     1    11    1
     3     2     5    1
     4     3     5    2
     5     3     7    1
     6     4    12    1
     7     6    16    2
     8     6    17    1
     9     7     9    1
    10     7    11    2
    11     8    17    1
    12     8    18    1
    13    10    21    1
    14    10    22    1
    15    10    23    1
    16    11    13    1
    17    12    24    1
    18    12    26    2
    19    13    14    1
    20    13    15    2
    21    14    17    2
    22    15    16    1
    23    18    19    2
    24    18    25    1
    25    19    20    1
    26    20    21    2
    27    21    24    1
    28    24    25    2
    29    22    27    1
    30    22    28    1
    31    22    29    1
    32    23    30    1
    33    23    31    1
    34    23    32    1
    35    25    33    1
    36    15    34    1
    37     8    35    1
    38     2    36    1
    39     2    37    1
    40     2    38    1
    41    16    39    1
    42     9    40    1
    43     9    41    1
    44     9    42    1
    45    19    43    1
    46    20    44    1
@<TRIPOS>SUBSTRUCTURE
     1 RES1        1 GROUP             0 ****  ****    0  
@<TRIPOS>MOLECULE
1W8C:A:N691301
    44    46     1     0     0
SMALL
NO_CHARGES
****
Generated from the CSD

@<TRIPOS>ATOM
     1 N1      26.4762   3.0169  64.3493   N.pl3     1 RES1   0.0000
     2 C2      27.0462   4.2309  64.3703   C.2       1 RES1   0.0000
     3 N3      26.4762   5.1818  63.5904   N.2       1 RES1   0.0000
     4 N4      28.1562   4.4849  65.1243   N.2       1 RES1   0.0000
     5 C5      28.6752   5.7248  65.0803   C.2       1 RES1   0.0000
     6 N6      29.7303   6.1678  65.7363   N.2       1 RES1   0.0000
     7 C7      29.8503   7.4928  65.3633   C.2       1 RES1   0.0000
     8 C8      30.9363   8.4207  65.8243   C.3       1 RES1   0.0000
     9 C9      31.4233   8.1817  67.2403   C.3       1 RES1   0.0000
    10 C10     32.1153   8.2357  64.8853   C.3       1 RES1   0.0000
    11 C11     28.0892   6.7658  64.2573   C.2       1 RES1   0.0000
    12 N12     28.8792   7.8958  64.4553   N.pl3     1 RES1   0.0000
    13 C13     26.9752   6.4458  63.5314   C.2       1 RES1   0.0000
    14 O14     26.3092   7.3118  62.7024   O.3       1 RES1   0.0000
    15 C15     26.2742   8.7267  62.8804   C.3       1 RES1   0.0000
    16 C16     26.3532   9.3827  61.5064   C.3       1 RES1   0.0000
    17 C17     25.7482  10.7837  61.5044   C.3       1 RES1   0.0000
    18 C18     25.9502  11.4476  60.1345   C.3       1 RES1   0.0000
    19 C19     25.3762  10.5967  58.9965   C.3       1 RES1   0.0000
    20 C20     25.8982   9.1597  59.0385   C.3       1 RES1   0.0000
    21 C21     25.7172   8.5167  60.4144   C.3       1 RES1   0.0000
    22 H1      26.8606   2.2659  64.9137   H         1 RES1   0.0000
    23 H2      25.6605   2.8492  63.7690   H         1 RES1   0.0000
    24 H3      27.1204   9.0426  63.4887   H         1 RES1   0.0000
    25 H4      25.3461   9.0133  63.3727   H         1 RES1   0.0000
    26 H5      26.2335  11.3860  62.2709   H         1 RES1   0.0000
    27 H6      24.6824  10.7154  61.7172   H         1 RES1   0.0000
    28 H7      30.5800   9.4466  65.7435   H         1 RES1   0.0000
    29 H8      27.4088   9.4876  61.2600   H         1 RES1   0.0000
    30 H9      27.0167  11.5883  59.9654   H         1 RES1   0.0000
    31 H10     25.4520  12.4160  60.1358   H         1 RES1   0.0000
    32 H11     31.8205   7.1710  67.3218   H         1 RES1   0.0000
    33 H12     32.2058   8.8998  67.4811   H         1 RES1   0.0000
    34 H13     30.5933   8.3027  67.9349   H         1 RES1   0.0000
    35 H14     25.6575  11.0456  58.0450   H         1 RES1   0.0000
    36 H15     24.2908  10.5795  59.0830   H         1 RES1   0.0000
    37 H16     26.9587   9.1649  58.7911   H         1 RES1   0.0000
    38 H17     25.3564   8.5686  58.3016   H         1 RES1   0.0000
    39 H18     31.8109   8.4783  63.8682   H         1 RES1   0.0000
    40 H19     32.9275   8.8949  65.1881   H         1 RES1   0.0000
    41 H20     32.4530   7.2012  64.9261   H         1 RES1   0.0000
    42 H21     28.7696   8.8110  64.0303   H         1 RES1   0.0000
    43 H22     24.6535   8.4066  60.6201   H         1 RES1   0.0000
    44 H23     26.1905   7.5359  60.4154   H         1 RES1   0.0000
@<TRIPOS>BOND
     1     1     2    1
     2     2     3    2
     3     2     4    1
     4     3    13    1
     5     4     5    2
     6     5     6    1
     7     5    11    1
     8     6     7    2
     9     7     8    1
    10     7    12    1
    11     8     9    1
    12     8    10    1
    13    11    12    1
    14    11    13    2
    15    13    14    1
    16    14    15    1
    17    15    16    1
    18    16    17    1
    19    16    21    1
    20    17    18    1
    21    18    19    1
    22    19    20    1
    23    20    21    1
    24     1    22    1
    25     1    23    1
    26    15    24    1
    27    15    25    1
    28    17    26    1
    29    17    27    1
    30     8    28    1
    31    16    29    1
    32    18    30    1
    33    18    31    1
    34     9    32    1
    35     9    33    1
    36     9    34    1
    37    19    35    1
    38    19    36    1
    39    20    37    1
    40    20    38    1
    41    10    39    1
    42    10    40    1
    43    10    41    1
    44    12    42    1
    45    21    43    1
    46    21    44    1
@<TRIPOS>SUBSTRUCTURE
     1 RES1        1 GROUP             0 ****  ****    0  
@<TRIPOS>MOLECULE
2BPM:A:5291299
    46    49     1     0     0
SMALL
NO_CHARGES
****
Generated from the CSD

@<TRIPOS>ATOM
     1 N1      31.0897  12.1005  69.1458   N.am      1 RES1   0.0000
     2 C2      30.7856  13.5346  68.8938   C.3       1 RES1   0.0000
     3 C3      30.8745  14.2036  70.2718   C.3       1 RES1   0.0000
     4 N4      31.2146  13.0785  71.1298   N.am      1 RES1   0.0000
     5 C5      31.3217  11.9515  70.4748   C.2       1 RES1   0.0000
     6 N6      27.2256   3.5221  65.0919   N.pl3     1 RES1   0.0000
     7 N7      28.4115   4.0702  65.3839   N.2       1 RES1   0.0000
     8 C8      28.4014   5.3392  64.8789   C.2       1 RES1   0.0000
     9 C9      27.1755   5.5802  64.2609   C.2       1 RES1   0.0000
    10 C10     26.4466   4.4232  64.3999   C.2       1 RES1   0.0000
    11 C11     25.0287   4.1352  63.8869   C.3       1 RES1   0.0000
    12 C12     24.2476   5.3502  63.3509   C.3       1 RES1   0.0000
    13 C13     24.4767   4.0802  62.4989   C.3       1 RES1   0.0000
    14 N14     29.5423   6.2193  64.9899   N.am      1 RES1   0.0000
    15 C15     29.7442   7.4813  64.5719   C.2       1 RES1   0.0000
    16 C16     31.1591   8.0483  64.8319   C.3       1 RES1   0.0000
    17 O17     28.8831   8.1583  63.9859   O.2       1 RES1   0.0000
    18 C18     31.1350   9.1294  65.9278   C.2       1 RES1   0.0000
    19 C19     31.4110   8.7284  67.2648   C.2       1 RES1   0.0000
    20 C20     31.3979   9.6754  68.3018   C.2       1 RES1   0.0000
    21 C21     31.1088  11.0625  68.0438   C.2       1 RES1   0.0000
    22 C22     30.8338  11.4455  66.6828   C.2       1 RES1   0.0000
    23 C23     30.8459  10.5034  65.6468   C.2       1 RES1   0.0000
    24 O24     31.6098  10.9015  71.0768   O.2       1 RES1   0.0000
    25 C25     31.7750   8.5644  63.4959   C.3       1 RES1   0.0000
    26 H1      29.7859  13.6470  68.4768   H         1 RES1   0.0000
    27 H2      31.5148  13.9667  68.2101   H         1 RES1   0.0000
    28 H3      30.3365   5.8099  65.4715   H         1 RES1   0.0000
    29 H4      31.7826   7.2299  65.1888   H         1 RES1   0.0000
    30 H5      29.9223  14.6472  70.5590   H         1 RES1   0.0000
    31 H6      31.6513  14.9665  70.2924   H         1 RES1   0.0000
    32 H7      31.6328   7.6851  67.4844   H         1 RES1   0.0000
    33 H8      31.6104   9.3547  69.3206   H         1 RES1   0.0000
    34 H9      31.3541  13.1599  72.1319   H         1 RES1   0.0000
    35 H10     26.9420   2.5806  65.3435   H         1 RES1   0.0000
    36 H11     24.4447   3.5431  64.5900   H         1 RES1   0.0000
    37 H12     31.1426   9.3495  63.0840   H         1 RES1   0.0000
    38 H13     32.7709   8.9623  63.6851   H         1 RES1   0.0000
    39 H14     31.8417   7.7419  62.7853   H         1 RES1   0.0000
    40 H15     30.6350  10.8164  64.6253   H         1 RES1   0.0000
    41 H16     30.6123  12.4872  66.4552   H         1 RES1   0.0000
    42 H17     24.7680   6.2758  63.1095   H         1 RES1   0.0000
    43 H18     23.2564   5.5814  63.7382   H         1 RES1   0.0000
    44 H19     26.8595   6.4985  63.7681   H         1 RES1   0.0000
    45 H20     23.6403   3.4202  62.2738   H         1 RES1   0.0000
    46 H21     25.1519   4.1146  61.6452   H         1 RES1   0.0000
@<TRIPOS>BOND
     1     1     2    1
     2     1     5   am
     3     1    21    1
     4     2     3    1
     5     3     4    1
     6     4     5   am
     7     5    24    2
     8     6     7    1
     9     6    10    1
    10     7     8    2
    11     8     9    1
    12     8    14    1
    13     9    10    2
    14    10    11    1
    15    11    12    1
    16    11    13    1
    17    12    13    1
    18    14    15   am
    19    15    16    1
    20    15    17    2
    21    16    18    1
    22    16    25    1
    23    18    19    2
    24    18    23    1
    25    19    20    1
    26    20    21    2
    27    21    22    1
    28    22    23    2
    29     2    26    1
    30     2    27    1
    31    14    28    1
    32    16    29    1
    33     3    30    1
    34     3    31    1
    35    19    32    1
    36    20    33    1
    37     4    34    1
    38     6    35    1
    39    11    36    1
    40    25    37    1
    41    25    38    1
    42    25    39    1
    43    23    40    1
    44    22    41    1
    45    12    42    1
    46    12    43    1
    47     9    44    1
    48    13    45    1
    49    13    46    1
@<TRIPOS>SUBSTRUCTURE
     1 RES1        1 GROUP             0 ****  ****    0  
@<TRIPOS>MOLECULE
3R1Y:A:X76488
    30    31     1     0     0
SMALL
NO_CHARGES
****
Generated from the CSD

@<TRIPOS>ATOM
     1 N1      29.9854   6.3648  64.7637   N.pl3     1 RES1   0.0000
     2 N2      26.9763   3.5739  64.6317   N.am      1 RES1   0.0000
     3 N3      31.5964   8.9807  67.8098   N.2       1 RES1   0.0000
     4 C4      26.4003   6.2878  63.9787   C.2       1 RES1   0.0000
     5 C5      27.6773   5.8598  64.4687   C.2       1 RES1   0.0000
     6 C6      28.8173   6.7408  64.3217   C.2       1 RES1   0.0000
     7 C7      28.6293   8.0247  63.6807   C.2       1 RES1   0.0000
     8 C8      27.3533   8.4237  63.2037   C.2       1 RES1   0.0000
     9 C9      26.2403   7.5567  63.3537   C.2       1 RES1   0.0000
    10 C10     27.7823   4.6048  65.0637   C.2       1 RES1   0.0000
    11 C11     31.2664   7.0848  64.4877   C.3       1 RES1   0.0000
    12 C12     31.5024   8.1937  65.4847   C.2       1 RES1   0.0000
    13 C13     31.3904   7.9847  66.8778   C.2       1 RES1   0.0000
    14 C14     31.9304  10.2326  67.3458   C.2       1 RES1   0.0000
    15 C15     32.0664  10.5376  65.9758   C.2       1 RES1   0.0000
    16 C16     31.8464   9.4937  65.0397   C.2       1 RES1   0.0000
    17 O17     28.5793   4.3868  65.9518   O.2       1 RES1   0.0000
    18 H1      25.5381   5.6314  64.0863   H         1 RES1   0.0000
    19 H2      27.0495   2.6578  65.0625   H         1 RES1   0.0000
    20 H3      26.3095   3.7307  63.8827   H         1 RES1   0.0000
    21 H4      32.0978  11.0265  68.0722   H         1 RES1   0.0000
    22 H5      31.1288   6.9890  67.2329   H         1 RES1   0.0000
    23 H6      31.9426   9.6933  63.9735   H         1 RES1   0.0000
    24 H7      32.3316  11.5413  65.6468   H         1 RES1   0.0000
    25 H8      29.4796   8.6948  63.5625   H         1 RES1   0.0000
    26 H9      25.2607   7.8629  62.9896   H         1 RES1   0.0000
    27 H10     31.2241   7.5117  63.4868   H         1 RES1   0.0000
    28 H11     32.0907   6.3755  64.5453   H         1 RES1   0.0000
    29 H12     27.2289   9.3932  62.7236   H         1 RES1   0.0000
    30 H13     30.0277   5.5262  65.3339   H         1 RES1   0.0000
@<TRIPOS>BOND
     1     1     6    1
     2     1    11    1
     3     2    10   am
     4     3    13    2
     5     3    14    1
     6     4     5    2
     7     4     9    1
     8     5     6    1
     9     5    10    1
    10     6     7    2
    11     7     8    1
    12     8     9    2
    13    10    17    2
    14    11    12    1
    15    12    13    1
    16    12    16    2
    17    14    15    2
    18    15    16    1
    19     4    18    1
    20     2    19    1
    21     2    20    1
    22    14    21    1
    23    13    22    1
    24    16    23    1
    25    15    24    1
    26     7    25    1
    27     9    26    1
    28    11    27    1
    29    11    28    1
    30     8    29    1
    31     1    30    1
@<TRIPOS>SUBSTRUCTURE
     1 RES1        1 GROUP             0 ****  ****    0  
@<TRIPOS>MOLECULE
4FKO:A:20K301
    42    44     1     0     0
SMALL
NO_CHARGES
****
Generated from the CSD

@<TRIPOS>ATOM
     1 S1      27.0341   7.7557  62.5350   S.3       1 RES1   0.0000
     2 Cl2     32.9861   9.0817  68.0310   Cl        1 RES1   0.0000
     3 C3      25.6461   9.3747  60.6969   C.3       1 RES1   0.0000
     4 N4      24.8131   7.1538  61.3929   N.2       1 RES1   0.0000
     5 C5      25.7181   8.0897  61.4509   C.2       1 RES1   0.0000
     6 N6      28.7431   3.8639  65.4050   N.2       1 RES1   0.0000
     7 C7      25.0941   6.0898  62.2340   C.2       1 RES1   0.0000
     8 N8      29.9801   5.7348  65.7870   N.pl3     1 RES1   0.0000
     9 C9      24.0971   4.9878  62.3650   C.3       1 RES1   0.0000
    10 N10     32.3491  10.8916  65.6770   N.3       1 RES1   0.0000
    11 C11     26.2971   6.2278  62.9320   C.2       1 RES1   0.0000
    12 N12     28.1191   5.9478  64.4030   N.2       1 RES1   0.0000
    13 C13     27.0871   5.3358  63.8010   C.2       1 RES1   0.0000
    14 C14     26.8191   3.9839  63.9640   C.2       1 RES1   0.0000
    15 C15     27.7041   3.2979  64.7750   C.2       1 RES1   0.0000
    16 C16     28.9151   5.1708  65.1780   C.2       1 RES1   0.0000
    17 C17     30.5531   7.0168  65.6930   C.2       1 RES1   0.0000
    18 C18     30.2291   7.9437  64.7090   C.2       1 RES1   0.0000
    19 C19     30.7901   9.2087  64.7210   C.2       1 RES1   0.0000
    20 C20     31.6771   9.5677  65.7240   C.2       1 RES1   0.0000
    21 C21     31.6031  11.9156  64.8900   C.3       1 RES1   0.0000
    22 C22     33.7681  10.7926  65.2270   C.3       1 RES1   0.0000
    23 C23     31.9871   8.6417  66.6940   C.2       1 RES1   0.0000
    24 C24     31.4651   7.3678  66.6790   C.2       1 RES1   0.0000
    25 H1      31.7649   6.6422  67.4337   H         1 RES1   0.0000
    26 H2      33.8027  10.3620  64.2274   H         1 RES1   0.0000
    27 H3      34.2136  11.7861  65.2099   H         1 RES1   0.0000
    28 H4      34.3237  10.1574  65.9153   H         1 RES1   0.0000
    29 H5      30.6193  12.0672  65.3318   H         1 RES1   0.0000
    30 H6      32.1546  12.8546  64.9011   H         1 RES1   0.0000
    31 H7      31.4907  11.5727  63.8625   H         1 RES1   0.0000
    32 H8      30.5341   9.9239  63.9406   H         1 RES1   0.0000
    33 H9      29.5276   7.6719  63.9217   H         1 RES1   0.0000
    34 H10     27.5469   2.2289  64.9107   H         1 RES1   0.0000
    35 H11     30.4579   5.1172  66.4354   H         1 RES1   0.0000
    36 H12     25.9703   3.4970  63.4861   H         1 RES1   0.0000
    37 H13     23.9326   4.5294  61.3910   H         1 RES1   0.0000
    38 H14     24.4734   4.2385  63.0599   H         1 RES1   0.0000
    39 H15     23.1575   5.3910  62.7398   H         1 RES1   0.0000
    40 H16     26.5256   9.4730  60.0624   H         1 RES1   0.0000
    41 H17     24.7497   9.3831  60.0786   H         1 RES1   0.0000
    42 H18     25.6104  10.2062  61.3992   H         1 RES1   0.0000
@<TRIPOS>BOND
     1     1     5    1
     2     1    11    1
     3     2    23    1
     4     3     5    1
     5     4     5    2
     6     4     7    1
     7     6    15    2
     8     6    16    1
     9     7     9    1
    10     7    11    2
    11     8    16    1
    12     8    17    1
    13    10    20    1
    14    10    21    1
    15    10    22    1
    16    11    13    1
    17    12    13    1
    18    12    16    2
    19    13    14    2
    20    14    15    1
    21    17    18    2
    22    17    24    1
    23    18    19    1
    24    19    20    2
    25    20    23    1
    26    23    24    2
    27    24    25    1
    28    22    26    1
    29    22    27    1
    30    22    28    1
    31    21    29    1
    32    21    30    1
    33    21    31    1
    34    19    32    1
    35    18    33    1
    36    15    34    1
    37     8    35    1
    38    14    36    1
    39     9    37    1
    40     9    38    1
    41     9    39    1
    42     3    40    1
    43     3    41    1
    44     3    42    1
@<TRIPOS>SUBSTRUCTURE
     1 RES1        1 GROUP             0 ****  ****    0  
@<TRIPOS>MOLECULE
1OIY:A:N411298
    49    52     1     0     0
SMALL
NO_CHARGES
****
Generated from the CSD

@<TRIPOS>ATOM
     1 C1      28.5559   5.7817  65.0807   C.2       1 RES1   0.0000
     2 C2      26.6539   8.6135  62.7697   C.3       1 RES1   0.0000
     3 C3      25.9599   9.3524  61.6307   C.3       1 RES1   0.0000
     4 C4      26.3729  10.8374  61.6417   C.3       1 RES1   0.0000
     5 C5      26.0429  11.6173  60.3477   C.3       1 RES1   0.0000
     6 C6      26.2559  10.7904  59.0676   C.3       1 RES1   0.0000
     7 C7      25.5899   9.4054  59.1577   C.3       1 RES1   0.0000
     8 C8      26.2199   8.6165  60.2957   C.3       1 RES1   0.0000
     9 C9      31.9349   9.0245  66.2477   C.2       1 RES1   0.0000
    10 C10     31.7639   9.7364  65.0727   C.2       1 RES1   0.0000
    11 C11     30.8949   9.2165  64.1047   C.2       1 RES1   0.0000
    12 C12     30.2119   8.0085  64.2867   C.2       1 RES1   0.0000
    13 N13     32.8729  11.4023  63.6057   N.am      1 RES1   0.0000
    14 N14     27.8259   6.7296  64.4097   N.2       1 RES1   0.0000
    15 C15     26.6609   6.4386  63.7737   C.2       1 RES1   0.0000
    16 O16     25.9409   7.4186  63.1277   O.3       1 RES1   0.0000
    17 C17     26.1959   5.0397  63.8137   C.2       1 RES1   0.0000
    18 N18     25.1159   4.3627  63.3237   N.pl3     1 RES1   0.0000
    19 N19     26.4709   2.8228  64.4857   N.2       1 RES1   0.0000
    20 C20     27.0179   4.0948  64.5207   C.2       1 RES1   0.0000
    21 N21     28.1509   4.4777  65.1357   N.2       1 RES1   0.0000
    22 N22     29.7299   6.1236  65.7007   N.pl3     1 RES1   0.0000
    23 C23     30.3789   7.3006  65.4757   C.2       1 RES1   0.0000
    24 C24     31.2509   7.8165  66.4457   C.2       1 RES1   0.0000
    25 C25     32.4649  11.0653  64.8447   C.2       1 RES1   0.0000
    26 C26     25.3109   3.0458  63.7487   C.2       1 RES1   0.0000
    27 O27     32.6039  11.8303  65.7967   O.2       1 RES1   0.0000
    28 H1      24.3460   4.7322  62.7751   H         1 RES1   0.0000
    29 H2      31.4001   7.2664  67.3736   H         1 RES1   0.0000
    30 H3      30.1359   5.4674  66.3601   H         1 RES1   0.0000
    31 H4      33.3415  12.2890  63.4493   H         1 RES1   0.0000
    32 H5      32.7117  10.7695  62.8287   H         1 RES1   0.0000
    33 H6      29.5560   7.6252  63.5065   H         1 RES1   0.0000
    34 H7      30.7458   9.7710  63.1794   H         1 RES1   0.0000
    35 H8      32.6023   9.4036  67.0202   H         1 RES1   0.0000
    36 H9      24.8885   9.3113  61.8214   H         1 RES1   0.0000
    37 H10     27.3250  10.6567  58.9093   H         1 RES1   0.0000
    38 H11     25.8290  11.3315  58.2245   H         1 RES1   0.0000
    39 H12     27.4490  10.8876  61.8012   H         1 RES1   0.0000
    40 H13     25.8601  11.3245  62.4698   H         1 RES1   0.0000
    41 H14     25.7352   8.8704  58.2204   H         1 RES1   0.0000
    42 H15     24.5240   9.5260  59.3454   H         1 RES1   0.0000
    43 H16     26.7063   9.2689  63.6378   H         1 RES1   0.0000
    44 H17     27.6616   8.3449  62.4563   H         1 RES1   0.0000
    45 H18     26.6832  12.4970  60.3015   H         1 RES1   0.0000
    46 H19     25.0002  11.9290  60.3884   H         1 RES1   0.0000
    47 H20     25.7792   7.6215  60.3366   H         1 RES1   0.0000
    48 H21     27.2928   8.5317  60.1297   H         1 RES1   0.0000
    49 H22     24.6046   2.2493  63.5194   H         1 RES1   0.0000
@<TRIPOS>BOND
     1     1    14    2
     2     1    21    1
     3     1    22    1
     4     2     3    1
     5     2    16    1
     6     3     4    1
     7     3     8    1
     8     4     5    1
     9     5     6    1
    10     6     7    1
    11     7     8    1
    12     9    10    2
    13     9    24    1
    14    10    11    1
    15    10    25    1
    16    11    12    2
    17    12    23    1
    18    13    25   am
    19    14    15    1
    20    15    16    1
    21    15    17    2
    22    17    18    1
    23    17    20    1
    24    18    26    1
    25    19    20    1
    26    19    26    2
    27    20    21    2
    28    22    23    1
    29    23    24    2
    30    25    27    2
    31    18    28    1
    32    24    29    1
    33    22    30    1
    34    13    31    1
    35    13    32    1
    36    12    33    1
    37    11    34    1
    38     9    35    1
    39     3    36    1
    40     6    37    1
    41     6    38    1
    42     4    39    1
    43     4    40    1
    44     7    41    1
    45     7    42    1
    46     2    43    1
    47     2    44    1
    48     5    45    1
    49     5    46    1
    50     8    47    1
    51     8    48    1
    52    26    49    1
@<TRIPOS>SUBSTRUCTURE
     1 RES1        1 GROUP             0 ****  ****    0  
@<TRIPOS>MOLECULE
5JQ5:A:I74302
    59    62     1     0     0
SMALL
NO_CHARGES
****
Generated from the CSD

@<TRIPOS>ATOM
     1 O1      26.9435  10.9248  60.3050   O.3       1 RES1   0.0000
     2 C2      25.8305  10.0918  60.0670   C.3       1 RES1   0.0000
     3 C3      25.9995   9.4508  58.6890   C.3       1 RES1   0.0000
     4 N4      25.1016   8.2908  58.6100   N.3       1 RES1   0.0000
     5 C5      25.1466   7.2679  59.6320   C.3       1 RES1   0.0000
     6 C6      25.1056   7.7808  61.0770   C.3       1 RES1   0.0000
     7 C7      25.9375   9.0818  61.1940   C.3       1 RES1   0.0000
     8 C8      25.8085   9.6948  62.5790   C.3       1 RES1   0.0000
     9 N9      27.1215   9.5048  63.1670   N.pl3     1 RES1   0.0000
    10 C10     27.5515   8.3158  63.7250   C.2       1 RES1   0.0000
    11 C11     28.8015   8.2228  64.3690   C.2       1 RES1   0.0000
    12 C12     29.1785   6.9759  64.9290   C.2       1 RES1   0.0000
    13 N13     28.2895   5.9339  64.8780   N.pl3     1 RES1   0.0000
    14 N14     28.5265   4.6459  65.3390   N.pl3     1 RES1   0.0000
    15 C15     27.4345   3.9109  64.9770   C.2       1 RES1   0.0000
    16 C16     26.5555   4.7889  64.3200   C.2       1 RES1   0.0000
    17 C17     25.2266   4.3159  63.7780   C.3       1 RES1   0.0000
    18 C18     24.0326   5.2539  64.0270   C.3       1 RES1   0.0000
    19 C19     25.2876   4.1579  62.2340   C.3       1 RES1   0.0000
    20 C20     27.1515   6.0579  64.2340   C.2       1 RES1   0.0000
    21 N21     26.7365   7.2269  63.6830   N.2       1 RES1   0.0000
    22 N22     30.3415   6.8039  65.5460   N.2       1 RES1   0.0000
    23 C23     31.4934   7.6378  65.1960   C.3       1 RES1   0.0000
    24 C24     31.5954   8.7058  66.2490   C.2       1 RES1   0.0000
    25 C25     31.5394  10.0368  65.8600   C.2       1 RES1   0.0000
    26 C26     31.6214  11.0098  66.8420   C.2       1 RES1   0.0000
    27 C27     31.7644  10.6698  68.2060   C.2       1 RES1   0.0000
    28 C28     31.8054   9.3238  68.6020   C.2       1 RES1   0.0000
    29 C29     31.7354   8.3528  67.6040   C.2       1 RES1   0.0000
    30 H1      31.7901   7.3004  67.8785   H         1 RES1   0.0000
    31 H2      31.4338  10.3088  64.8108   H         1 RES1   0.0000
    32 H3      31.8433  11.4568  68.9545   H         1 RES1   0.0000
    33 H4      31.8890   9.0476  69.6521   H         1 RES1   0.0000
    34 H5      31.5747  12.0597  66.5568   H         1 RES1   0.0000
    35 H6      31.3443   8.0904  64.2168   H         1 RES1   0.0000
    36 H7      32.4011   7.0363  65.1835   H         1 RES1   0.0000
    37 H8      26.0533   3.4286  61.9737   H         1 RES1   0.0000
    38 H9      24.3212   3.8169  61.8655   H         1 RES1   0.0000
    39 H10     25.5311   5.1175  61.7802   H         1 RES1   0.0000
    40 H11     24.2260   6.2192  63.5614   H         1 RES1   0.0000
    41 H12     23.1323   4.8174  63.5971   H         1 RES1   0.0000
    42 H13     23.8945   5.3890  65.0987   H         1 RES1   0.0000
    43 H14     25.0005   3.3449  64.2161   H         1 RES1   0.0000
    44 H15     27.2753   2.8495  65.1616   H         1 RES1   0.0000
    45 H16     29.3446   4.3178  65.8423   H         1 RES1   0.0000
    46 H17     29.4612   9.0867  64.4349   H         1 RES1   0.0000
    47 H18     27.7622  10.2920  63.1686   H         1 RES1   0.0000
    48 H19     25.0450   9.1806  63.1609   H         1 RES1   0.0000
    49 H20     25.5628  10.7537  62.5130   H         1 RES1   0.0000
    50 H21     26.9710   8.7416  61.1490   H         1 RES1   0.0000
    51 H22     25.5213   7.0246  61.7413   H         1 RES1   0.0000
    52 H23     24.0738   7.9845  61.3595   H         1 RES1   0.0000
    53 H24     26.0685   6.7030  59.5018   H         1 RES1   0.0000
    54 H25     24.2927   6.6081  59.4851   H         1 RES1   0.0000
    55 H26     25.2954   7.8304  57.7264   H         1 RES1   0.0000
    56 H27     27.0312   9.1283  58.5563   H         1 RES1   0.0000
    57 H28     25.7415  10.1704  57.9134   H         1 RES1   0.0000
    58 H29     24.8991  10.6526  60.1285   H         1 RES1   0.0000
    59 H30     26.9868  11.6275  59.6047   H         1 RES1   0.0000
@<TRIPOS>BOND
     1     1     2    1
     2     2     3    1
     3     2     7    1
     4     3     4    1
     5     4     5    1
     6     5     6    1
     7     6     7    1
     8     7     8    1
     9     8     9    1
    10     9    10    1
    11    10    11    2
    12    10    21    1
    13    11    12    1
    14    12    13    1
    15    12    22    2
    16    13    14    1
    17    13    20    1
    18    14    15    1
    19    15    16    2
    20    16    17    1
    21    16    20    1
    22    17    18    1
    23    17    19    1
    24    20    21    2
    25    22    23    1
    26    23    24    1
    27    24    25    2
    28    24    29    1
    29    25    26    1
    30    26    27    2
    31    27    28    1
    32    28    29    2
    33    29    30    1
    34    25    31    1
    35    27    32    1
    36    28    33    1
    37    26    34    1
    38    23    35    1
    39    23    36    1
    40    19    37    1
    41    19    38    1
    42    19    39    1
    43    18    40    1
    44    18    41    1
    45    18    42    1
    46    17    43    1
    47    15    44    1
    48    14    45    1
    49    11    46    1
    50     9    47    1
    51     8    48    1
    52     8    49    1
    53     7    50    1
    54     6    51    1
    55     6    52    1
    56     5    53    1
    57     5    54    1
    58     4    55    1
    59     3    56    1
    60     3    57    1
    61     2    58    1
    62     1    59    1
@<TRIPOS>SUBSTRUCTURE
     1 RES1        1 GROUP             0 ****  ****    0  
@<TRIPOS>MOLECULE
5AND:A:5JE1295
    22    24     1     0     0
SMALL
NO_CHARGES
****
Generated from the CSD

@<TRIPOS>ATOM
     1 C1      29.3368   7.1441  64.6820   C.2       1 RES1   0.0000
     2 N2      30.3148   8.1992  64.7110   N.pl3     1 RES1   0.0000
     3 N3      28.1968   7.2541  63.9330   N.pl3     1 RES1   0.0000
     4 N4      29.4578   6.0021  65.3440   N.2       1 RES1   0.0000
     5 C5      30.3098   9.3652  63.9300   C.2       1 RES1   0.0000
     6 C6      31.4457   8.2762  65.5300   C.2       1 RES1   0.0000
     7 C7      27.5078   6.0401  64.1100   C.2       1 RES1   0.0000
     8 C8      28.3028   5.2711  64.9700   C.2       1 RES1   0.0000
     9 C9      31.4207  10.0752  64.3110   C.2       1 RES1   0.0000
    10 N10     32.1367   9.3912  65.3120   N.2       1 RES1   0.0000
    11 C11     26.3278   5.5591  63.5670   C.2       1 RES1   0.0000
    12 C12     27.9108   3.9941  65.3090   C.2       1 RES1   0.0000
    13 C13     25.9348   4.2711  63.9310   C.2       1 RES1   0.0000
    14 C14     26.7148   3.5061  64.7840   C.2       1 RES1   0.0000
    15 H1      31.7262   7.5159  66.2575   H         1 RES1   0.0000
    16 H2      31.7099  11.0390  63.8947   H         1 RES1   0.0000
    17 H3      28.5205   3.3809  65.9710   H         1 RES1   0.0000
    18 H4      25.7312   6.1618  62.8838   H         1 RES1   0.0000
    19 H5      25.0043   3.8618  63.5404   H         1 RES1   0.0000
    20 H6      26.3865   2.5024  65.0498   H         1 RES1   0.0000
    21 H7      29.5758   9.6482  63.1770   H         1 RES1   0.0000
    22 H8      27.9084   8.0462  63.3677   H         1 RES1   0.0000
@<TRIPOS>BOND
     1     1     2    1
     2     1     3    1
     3     1     4    2
     4     2     5    1
     5     2     6    1
     6     3     7    1
     7     4     8    1
     8     5     9    2
     9     6    10    2
    10     7     8    2
    11     7    11    1
    12     8    12    1
    13     9    10    1
    14    11    13    2
    15    12    14    2
    16    13    14    1
    17     6    15    1
    18     9    16    1
    19    12    17    1
    20    11    18    1
    21    13    19    1
    22    14    20    1
    23     5    21    1
    24     3    22    1
@<TRIPOS>SUBSTRUCTURE
     1 RES1        1 GROUP             0 ****  ****    0  
@<TRIPOS>MOLECULE
3RAH:A:O1Z516
    46    49     1     0     0
SMALL
NO_CHARGES
****
Generated from the CSD

@<TRIPOS>ATOM
     1 C1      25.8984   9.4530  60.5286   C.2       1 RES1   0.0000
     2 S2      28.3284   7.0160  64.4245   S.3       1 RES1   0.0000
     3 C3      26.0984   8.2110  59.8256   C.2       1 RES1   0.0000
     4 N4      28.6733   4.6960  65.5435   N.2       1 RES1   0.0000
     5 C5      26.2834   6.9830  60.5586   C.2       1 RES1   0.0000
     6 N6      30.0373   6.4500  66.4475   N.pl3     1 RES1   0.0000
     7 O7      25.8264   4.6750  62.3206   O.2       1 RES1   0.0000
     8 C8      26.0584   8.2180  62.7366   C.2       1 RES1   0.0000
     9 N9      27.1784   3.2850  64.3455   N.pl3     1 RES1   0.0000
    10 C10     25.8754   9.4560  62.0226   C.2       1 RES1   0.0000
    11 C11     25.7224  10.6990  59.8126   C.2       1 RES1   0.0000
    12 C12     25.5274  11.9320  60.5466   C.2       1 RES1   0.0000
    13 C13     25.5034  11.9370  61.9926   C.2       1 RES1   0.0000
    14 C14     25.6744  10.7080  62.7336   C.2       1 RES1   0.0000
    15 C15     26.2704   6.9500  62.0186   C.2       1 RES1   0.0000
    16 C16     26.4784   5.8020  62.7106   C.2       1 RES1   0.0000
    17 C17     27.4424   5.6680  63.8565   C.2       1 RES1   0.0000
    18 C18     27.7394   4.5080  64.5755   C.2       1 RES1   0.0000
    19 C19     29.0813   5.9980  65.5685   C.2       1 RES1   0.0000
    20 C20     30.6523   7.7670  66.2245   C.3       1 RES1   0.0000
    21 C21     31.6883   7.7270  65.0485   C.3       1 RES1   0.0000
    22 C22     32.3243   9.1210  64.8145   C.3       1 RES1   0.0000
    23 C23     32.9772   9.6640  66.1115   C.3       1 RES1   0.0000
    24 C24     31.9983   9.6500  67.3145   C.3       1 RES1   0.0000
    25 C25     31.3443   8.2610  67.5224   C.3       1 RES1   0.0000
    26 H1      25.3973  12.8667  60.0032   H         1 RES1   0.0000
    27 H2      25.7366  10.7090  58.7237   H         1 RES1   0.0000
    28 H3      25.6527  10.7198  63.8223   H         1 RES1   0.0000
    29 H4      25.3553  12.8741  62.5273   H         1 RES1   0.0000
    30 H5      26.4369   6.0556  60.0088   H         1 RES1   0.0000
    31 H6      30.3152   5.8813  67.2409   H         1 RES1   0.0000
    32 H7      26.1099   8.1998  58.7367   H         1 RES1   0.0000
    33 H8      26.0396   8.2201  63.8254   H         1 RES1   0.0000
    34 H9      26.4826   3.1752  63.6147   H         1 RES1   0.0000
    35 H10     27.4571   2.4855  64.9053   H         1 RES1   0.0000
    36 H11     33.3029  10.6884  65.9371   H         1 RES1   0.0000
    37 H12     33.8397   9.0453  66.3548   H         1 RES1   0.0000
    38 H13     31.5503   9.8145  64.4892   H         1 RES1   0.0000
    39 H14     33.0863   9.0385  64.0409   H         1 RES1   0.0000
    40 H15     31.1806   7.4108  64.1384   H         1 RES1   0.0000
    41 H16     32.4747   7.0141  65.2919   H         1 RES1   0.0000
    42 H17     31.2136  10.3837  67.1363   H         1 RES1   0.0000
    43 H18     32.5473   9.9174  68.2162   H         1 RES1   0.0000
    44 H19     32.1135   7.5455  67.8093   H         1 RES1   0.0000
    45 H20     30.6016   8.3331  68.3156   H         1 RES1   0.0000
    46 H21     29.8655   8.4736  65.9648   H         1 RES1   0.0000
@<TRIPOS>BOND
     1     1     3    2
     2     1    10    1
     3     1    11    1
     4     2    17    1
     5     2    19    1
     6     3     5    1
     7     4    18    1
     8     4    19    2
     9     5    15    2
    10     6    19    1
    11     6    20    1
    12     7    16    2
    13     8    10    2
    14     8    15    1
    15     9    18    1
    16    10    14    1
    17    11    12    2
    18    12    13    1
    19    13    14    2
    20    15    16    1
    21    16    17    1
    22    17    18    2
    23    20    21    1
    24    20    25    1
    25    21    22    1
    26    22    23    1
    27    23    24    1
    28    24    25    1
    29    12    26    1
    30    11    27    1
    31    14    28    1
    32    13    29    1
    33     5    30    1
    34     6    31    1
    35     3    32    1
    36     8    33    1
    37     9    34    1
    38     9    35    1
    39    23    36    1
    40    23    37    1
    41    22    38    1
    42    22    39    1
    43    21    40    1
    44    21    41    1
    45    24    42    1
    46    24    43    1
    47    25    44    1
    48    25    45    1
    49    20    46    1
@<TRIPOS>SUBSTRUCTURE
     1 RES1        1 GROUP             0 ****  ****    0  
@<TRIPOS>MOLECULE
4FKI:A:09K301
    37    39     1     0     0
SMALL
NO_CHARGES
****
Generated from the CSD

@<TRIPOS>ATOM
     1 C1      30.8952  11.3479  70.5002   C.3       1 RES1   0.0000
     2 F2      30.9192  12.5179  71.1412   F         1 RES1   0.0000
     3 N3      29.7782   6.1279  65.1954   N.am      1 RES1   0.0000
     4 O4      31.6122  11.4459  69.3223   O.3       1 RES1   0.0000
     5 C5      31.4552  10.5449  68.2713   C.2       1 RES1   0.0000
     6 F6      31.3802  10.4279  71.3152   F         1 RES1   0.0000
     7 N7      28.5343   4.1080  65.4834   N.2       1 RES1   0.0000
     8 O8      29.2883   7.9709  63.9264   O.2       1 RES1   0.0000
     9 C9      31.2162  11.0649  66.9823   C.2       1 RES1   0.0000
    10 F10     29.6372  11.0179  70.2472   F         1 RES1   0.0000
    11 N11     27.3823   3.6150  65.0444   N.pl3     1 RES1   0.0000
    12 C12     31.2142  10.1849  65.8854   C.2       1 RES1   0.0000
    13 C13     31.4362   8.7929  66.1003   C.2       1 RES1   0.0000
    14 C14     31.6382   8.3129  67.3873   C.2       1 RES1   0.0000
    15 C15     31.6552   9.1629  68.5113   C.2       1 RES1   0.0000
    16 C16     31.4822   7.8829  64.9524   C.3       1 RES1   0.0000
    17 C17     30.0692   7.3559  64.6274   C.2       1 RES1   0.0000
    18 C18     28.6183   5.4020  65.0184   C.2       1 RES1   0.0000
    19 C19     26.6643   4.5410  64.2864   C.2       1 RES1   0.0000
    20 C20     27.4293   5.7290  64.2504   C.2       1 RES1   0.0000
    21 C21     25.3684   4.1720  63.7114   C.3       1 RES1   0.0000
    22 C22     24.3304   5.2390  63.4874   C.3       1 RES1   0.0000
    23 C23     24.9834   4.5550  62.3054   C.3       1 RES1   0.0000
    24 H1      24.4092   3.8639  61.6900   H         1 RES1   0.0000
    25 H2      25.6851   5.1027  61.6781   H         1 RES1   0.0000
    26 H3      24.9745   3.2144  64.0486   H         1 RES1   0.0000
    27 H4      24.5617   6.2795  63.7107   H         1 RES1   0.0000
    28 H5      23.2858   5.0407  63.7227   H         1 RES1   0.0000
    29 H6      31.8145   8.7759  69.5167   H         1 RES1   0.0000
    30 H7      27.1844   6.6704  63.7608   H         1 RES1   0.0000
    31 H8      31.7885   7.2442  67.5331   H         1 RES1   0.0000
    32 H9      32.1337   7.0423  65.1867   H         1 RES1   0.0000
    33 H10     31.8742   8.4159  64.0874   H         1 RES1   0.0000
    34 H11     31.0443  10.5640  64.8787   H         1 RES1   0.0000
    35 H12     27.0605   2.6720  65.2380   H         1 RES1   0.0000
    36 H13     31.0363  12.1293  66.8389   H         1 RES1   0.0000
    37 H14     30.4856   5.7226  65.7999   H         1 RES1   0.0000
@<TRIPOS>BOND
     1     1     2    1
     2     1     4    1
     3     1     6    1
     4     1    10    1
     5     3    17   am
     6     3    18    1
     7     4     5    1
     8     5     9    2
     9     5    15    1
    10     7    11    1
    11     7    18    2
    12     8    17    2
    13     9    12    1
    14    11    19    1
    15    12    13    2
    16    13    14    1
    17    13    16    1
    18    14    15    2
    19    16    17    1
    20    18    20    1
    21    19    20    2
    22    19    21    1
    23    21    22    1
    24    21    23    1
    25    22    23    1
    26    23    24    1
    27    23    25    1
    28    21    26    1
    29    22    27    1
    30    22    28    1
    31    15    29    1
    32    20    30    1
    33    14    31    1
    34    16    32    1
    35    16    33    1
    36    12    34    1
    37    11    35    1
    38     9    36    1
    39     3    37    1
@<TRIPOS>SUBSTRUCTURE
     1 RES1        1 GROUP             0 ****  ****    0  
@<TRIPOS>MOLECULE
3NS9:A:NS91
    55    57     1     0     0
SMALL
NO_CHARGES
****
Generated from the CSD

@<TRIPOS>ATOM
     1 N1      28.4088   4.5659  65.1554   N.pl3     1 RES1   0.0000
     2 N2      28.2968   5.7049  64.6124   N.pl3     1 RES1   0.0000
     3 C3      29.2148   6.7299  64.5024   C.2       1 RES1   0.0000
     4 C4      28.8598   7.8628  63.7354   C.2       1 RES1   0.0000
     5 C5      27.5508   7.9658  63.1284   C.2       1 RES1   0.0000
     6 N6      26.6488   6.9259  63.2044   N.2       1 RES1   0.0000
     7 C7      27.0298   5.8299  63.9444   C.2       1 RES1   0.0000
     8 C8      26.4098   4.6169  64.2644   C.2       1 RES1   0.0000
     9 C9      27.2698   3.8819  64.9924   C.2       1 RES1   0.0000
    10 N10     30.4198   6.5679  65.1044   N.pl3     1 RES1   0.0000
    11 C11     31.5538   7.5269  64.8904   C.3       1 RES1   0.0000
    12 C12     31.4858   8.6188  65.9374   C.2       1 RES1   0.0000
    13 C13     31.4858   8.2498  67.2894   C.2       1 RES1   0.0000
    14 C14     31.4248   9.2148  68.2885   C.2       1 RES1   0.0000
    15 C15     31.3628  10.5778  67.9295   C.2       1 RES1   0.0000
    16 C16     31.3808  10.9048  66.5954   C.2       1 RES1   0.0000
    17 C17     31.4318   9.9528  65.5684   C.2       1 RES1   0.0000
    18 N18     27.2838   9.0758  62.4073   N.2       1 RES1   0.0000
    19 C19     25.8938   9.3368  61.8873   C.3       1 RES1   0.0000
    20 C20     25.7248   8.9758  60.4253   C.3       1 RES1   0.0000
    21 C21     26.0788   7.4879  60.0593   C.3       1 RES1   0.0000
    22 O22     25.2108   6.7109  60.8353   O.3       1 RES1   0.0000
    23 C23     25.6008  10.8628  62.0663   C.3       1 RES1   0.0000
    24 O24     26.7888  11.6508  61.8043   O.3       1 RES1   0.0000
    25 O25     24.3258   9.2838  60.0743   O.3       1 RES1   0.0000
    26 C26     25.0308   4.1769  63.8364   C.3       1 RES1   0.0000
    27 C27     25.0358   3.8369  62.3223   C.3       1 RES1   0.0000
    28 C28     23.9088   5.2539  64.0624   C.3       1 RES1   0.0000
    29 H1      27.0932  11.4910  60.8727   H         1 RES1   0.0000
    30 H2      24.2711   6.9328  60.6034   H         1 RES1   0.0000
    31 H3      27.1160   7.2683  60.3081   H         1 RES1   0.0000
    32 H4      25.9132   7.3042  58.9987   H         1 RES1   0.0000
    33 H5      26.3704   9.6292  59.8403   H         1 RES1   0.0000
    34 H6      31.5341   7.1961  67.5603   H         1 RES1   0.0000
    35 H7      31.3021  11.3526  68.6923   H         1 RES1   0.0000
    36 H8      31.3540  11.9585  66.3217   H         1 RES1   0.0000
    37 H9      31.4249   8.9216  69.3373   H         1 RES1   0.0000
    38 H10     31.4291  10.2502  64.5208   H         1 RES1   0.0000
    39 H11     29.5805   8.6679  63.5998   H         1 RES1   0.0000
    40 H12     30.5587   5.7724  65.7193   H         1 RES1   0.0000
    41 H13     27.0706   2.8867  65.3871   H         1 RES1   0.0000
    42 H14     31.4753   7.9683  63.8980   H         1 RES1   0.0000
    43 H15     32.5009   6.9966  64.9780   H         1 RES1   0.0000
    44 H16     29.2337   4.2251  65.6388   H         1 RES1   0.0000
    45 H17     25.7458   3.0331  62.1331   H         1 RES1   0.0000
    46 H18     24.0393   3.5201  62.0181   H         1 RES1   0.0000
    47 H19     25.3258   4.7189  61.7532   H         1 RES1   0.0000
    48 H20     24.1474   6.1515  63.4938   H         1 RES1   0.0000
    49 H21     22.9515   4.8564  63.7284   H         1 RES1   0.0000
    50 H22     23.8500   5.5001  65.1216   H         1 RES1   0.0000
    51 H23     24.1524  10.2502  60.2227   H         1 RES1   0.0000
    52 H24     24.7657   3.2787  64.3922   H         1 RES1   0.0000
    53 H25     25.2699  11.0451  63.0877   H         1 RES1   0.0000
    54 H26     24.8159  11.1592  61.3721   H         1 RES1   0.0000
    55 H27     25.1799   8.7660  62.4792   H         1 RES1   0.0000
@<TRIPOS>BOND
     1     1     2    1
     2     1     9    1
     3     2     3    1
     4     2     7    1
     5     3     4    2
     6     3    10    1
     7     4     5    1
     8     5     6    1
     9     5    18    2
    10     6     7    2
    11     7     8    1
    12     8     9    2
    13     8    26    1
    14    10    11    1
    15    11    12    1
    16    12    13    2
    17    12    17    1
    18    13    14    1
    19    14    15    2
    20    15    16    1
    21    16    17    2
    22    18    19    1
    23    19    20    1
    24    19    23    1
    25    20    21    1
    26    20    25    1
    27    21    22    1
    28    23    24    1
    29    26    27    1
    30    26    28    1
    31    24    29    1
    32    22    30    1
    33    21    31    1
    34    21    32    1
    35    20    33    1
    36    13    34    1
    37    15    35    1
    38    16    36    1
    39    14    37    1
    40    17    38    1
    41     4    39    1
    42    10    40    1
    43     9    41    1
    44    11    42    1
    45    11    43    1
    46     1    44    1
    47    27    45    1
    48    27    46    1
    49    27    47    1
    50    28    48    1
    51    28    49    1
    52    28    50    1
    53    25    51    1
    54    26    52    1
    55    23    53    1
    56    23    54    1
    57    19    55    1
@<TRIPOS>SUBSTRUCTURE
     1 RES1        1 GROUP             0 ****  ****    0  
@<TRIPOS>MOLECULE
3S2P:A:PMU500
    46    48     1     0     0
SMALL
NO_CHARGES
****
Generated from the CSD

@<TRIPOS>ATOM
     1 C1      25.0655   7.9590  61.7201   C.3       1 RES1   0.0000
     2 N2      26.3295   7.2050  61.7041   N.pl3     1 RES1   0.0000
     3 O3      29.0085   5.3830  66.2740   O.3       1 RES1   0.0000
     4 C4      28.3895   5.8860  65.1490   C.2       1 RES1   0.0000
     5 O5      25.9565   7.5970  58.1862   O.3       1 RES1   0.0000
     6 C6      27.2135   5.2060  64.7131   C.2       1 RES1   0.0000
     7 O7      23.4184   8.0370  59.8991   O.3       1 RES1   0.0000
     8 C8      26.5005   5.6410  63.5571   C.2       1 RES1   0.0000
     9 C9      26.9785   6.7700  62.8421   C.2       1 RES1   0.0000
    10 C10     28.1475   7.4380  63.2911   C.2       1 RES1   0.0000
    11 C11     28.8915   7.0240  64.4501   C.2       1 RES1   0.0000
    12 C12     26.8615   6.9430  60.3591   C.3       1 RES1   0.0000
    13 C13     24.7955   8.1880  60.2201   C.3       1 RES1   0.0000
    14 C14     25.6295   7.1230  59.4821   C.3       1 RES1   0.0000
    15 C15     32.4116  10.7620  64.0561   C.3       1 RES1   0.0000
    16 C16     31.5286  11.2460  62.8891   C.3       1 RES1   0.0000
    17 C17     30.1466   7.7540  64.9141   C.2       1 RES1   0.0000
    18 N18     30.8776   7.3620  66.0550   N.2       1 RES1   0.0000
    19 C19     31.9796   8.0360  66.4530   C.2       1 RES1   0.0000
    20 C20     33.8426  10.4650  63.5751   C.3       1 RES1   0.0000
    21 N21     32.4766   9.1080  65.8270   N.2       1 RES1   0.0000
    22 C22     31.8176   9.5330  64.7211   C.2       1 RES1   0.0000
    23 C23     30.6466   8.8800  64.2321   C.2       1 RES1   0.0000
    24 N24     32.6466   7.6610  67.5310   N.pl3     1 RES1   0.0000
    25 H1      33.4728   8.1744  67.8207   H         1 RES1   0.0000
    26 H2      32.3325   6.8596  68.0689   H         1 RES1   0.0000
    27 H3      30.1441   9.2493  63.3393   H         1 RES1   0.0000
    28 H4      32.4611  11.5584  64.7972   H         1 RES1   0.0000
    29 H5      34.2803  11.3703  63.1570   H         1 RES1   0.0000
    30 H6      34.4452  10.1255  64.4163   H         1 RES1   0.0000
    31 H7      33.8152   9.6890  62.8116   H         1 RES1   0.0000
    32 H8      31.4869  10.4748  62.1214   H         1 RES1   0.0000
    33 H9      30.5231  11.4490  63.2547   H         1 RES1   0.0000
    34 H10     31.9520  12.1561  62.4668   H         1 RES1   0.0000
    35 H11     25.0743   6.1886  59.4139   H         1 RES1   0.0000
    36 H12     26.5603   6.9479  57.7389   H         1 RES1   0.0000
    37 H13     25.6047   5.1159  63.2287   H         1 RES1   0.0000
    38 H14     28.4974   8.3045  62.7319   H         1 RES1   0.0000
    39 H15     29.2837   4.4434  66.1082   H         1 RES1   0.0000
    40 H16     26.8551   4.3423  65.2712   H         1 RES1   0.0000
    41 H17     22.8841   8.6961  60.4150   H         1 RES1   0.0000
    42 H18     27.2565   5.9311  60.2814   H         1 RES1   0.0000
    43 H19     27.6401   7.6577  60.0968   H         1 RES1   0.0000
    44 H20     25.1778   8.9045  62.2487   H         1 RES1   0.0000
    45 H21     24.2668   7.3787  62.1798   H         1 RES1   0.0000
    46 H22     25.1329   9.1829  59.9334   H         1 RES1   0.0000
@<TRIPOS>BOND
     1     1     2    1
     2     1    13    1
     3     2     9    1
     4     2    12    1
     5     3     4    1
     6     4     6    2
     7     4    11    1
     8     5    14    1
     9     6     8    1
    10     7    13    1
    11     8     9    2
    12     9    10    1
    13    10    11    2
    14    11    17    1
    15    12    14    1
    16    13    14    1
    17    15    16    1
    18    15    20    1
    19    15    22    1
    20    17    18    2
    21    17    23    1
    22    18    19    1
    23    19    21    2
    24    19    24    1
    25    21    22    1
    26    22    23    2
    27    24    25    1
    28    24    26    1
    29    23    27    1
    30    15    28    1
    31    20    29    1
    32    20    30    1
    33    20    31    1
    34    16    32    1
    35    16    33    1
    36    16    34    1
    37    14    35    1
    38     5    36    1
    39     8    37    1
    40    10    38    1
    41     3    39    1
    42     6    40    1
    43     7    41    1
    44    12    42    1
    45    12    43    1
    46     1    44    1
    47     1    45    1
    48    13    46    1
@<TRIPOS>SUBSTRUCTURE
     1 RES1        1 GROUP             0 ****  ****    0  
@<TRIPOS>MOLECULE
1V1K:A:3FP299
    56    58     1     0     0
SMALL
NO_CHARGES
****
Generated from the CSD

@<TRIPOS>ATOM
     1 C1      26.6790   5.6018  63.5772   C.2       1 RES1   0.0000
     2 N2      28.4860   4.5059  65.2792   N.2       1 RES1   0.0000
     3 C3      27.7690   6.3628  64.0402   C.2       1 RES1   0.0000
     4 C4      26.0520   9.5637  60.3293   C.2       1 RES1   0.0000
     5 C5      26.9900   8.5437  60.2063   C.2       1 RES1   0.0000
     6 C6      26.8890   7.3928  60.9863   C.2       1 RES1   0.0000
     7 C7      25.8410   7.2608  61.9093   C.2       1 RES1   0.0000
     8 C8      28.6940   5.7678  64.9202   C.2       1 RES1   0.0000
     9 C9      30.9470   8.4198  66.2762   C.2       1 RES1   0.0000
    10 C10     30.2880   7.7268  65.2432   C.2       1 RES1   0.0000
    11 C11     24.9020   8.2868  62.0123   C.2       1 RES1   0.0000
    12 C12     25.0000   9.4397  61.2383   C.2       1 RES1   0.0000
    13 C13     31.4230   9.7227  66.1002   C.2       1 RES1   0.0000
    14 C14     31.2590  12.7996  65.1892   C.3       1 RES1   0.0000
    15 C15     30.6170   9.6377  63.8332   C.2       1 RES1   0.0000
    16 C16     31.2340  10.3507  64.8642   C.2       1 RES1   0.0000
    17 C17     30.1370   8.3508  64.0042   C.2       1 RES1   0.0000
    18 C18     27.4520   3.8039  64.8342   C.2       1 RES1   0.0000
    19 N19     26.5570   4.3239  64.0102   N.2       1 RES1   0.0000
    20 N20     25.7040   6.1168  62.7102   N.pl3     1 RES1   0.0000
    21 F21     27.8080   6.4048  60.8623   F         1 RES1   0.0000
    22 N22     29.8300   6.4038  65.4562   N.pl3     1 RES1   0.0000
    23 O23     31.7050  11.6027  64.5402   O.3       1 RES1   0.0000
    24 C24     23.9470  10.5387  61.3893   C.3       1 RES1   0.0000
    25 F25     23.5590  11.1237  60.1663   F         1 RES1   0.0000
    26 F26     22.7870   9.9527  61.9003   F         1 RES1   0.0000
    27 F27     24.3870  11.5417  62.2803   F         1 RES1   0.0000
    28 C28     32.0080  13.9546  64.4712   C.3       1 RES1   0.0000
    29 C29     32.7270  14.9606  65.3992   C.3       1 RES1   0.0000
    30 C30     34.7771  13.8076  65.9952   C.3       1 RES1   0.0000
    31 C31     34.0001  15.5705  67.2762   C.3       1 RES1   0.0000
    32 N32     33.5330  14.4006  66.5102   N.3       1 RES1   0.0000
    33 O33     32.9570  13.4636  63.5012   O.3       1 RES1   0.0000
    34 H1      31.9654  15.6032  65.8385   H         1 RES1   0.0000
    35 H2      33.3937  15.5589  64.7799   H         1 RES1   0.0000
    36 H3      35.3603  14.5731  65.4856   H         1 RES1   0.0000
    37 H4      35.3559  13.4018  66.8236   H         1 RES1   0.0000
    38 H5      34.5360  13.0090  65.2952   H         1 RES1   0.0000
    39 H6      33.1413  16.1285  67.6463   H         1 RES1   0.0000
    40 H7      34.6053  15.2356  68.1174   H         1 RES1   0.0000
    41 H8      34.5988  16.2115  66.6308   H         1 RES1   0.0000
    42 H9      32.4806  12.9285  62.8136   H         1 RES1   0.0000
    43 H10     31.2582  14.5186  63.9185   H         1 RES1   0.0000
    44 H11     30.5098  10.1121  62.8588   H         1 RES1   0.0000
    45 H12     24.8216   5.6180  62.6575   H         1 RES1   0.0000
    46 H13     30.3971   5.8378  66.0793   H         1 RES1   0.0000
    47 H14     27.3366   2.7701  65.1564   H         1 RES1   0.0000
    48 H15     31.5147  12.7782  66.2475   H         1 RES1   0.0000
    49 H16     30.1819  12.9156  65.0782   H         1 RES1   0.0000
    50 H17     29.6474   7.8315  63.1817   H         1 RES1   0.0000
    51 H18     31.9324  10.2402  66.9118   H         1 RES1   0.0000
    52 H19     24.0747   8.1839  62.7130   H         1 RES1   0.0000
    53 H20     31.0898   7.9284  67.2375   H         1 RES1   0.0000
    54 H21     27.8953   7.3968  63.7226   H         1 RES1   0.0000
    55 H22     26.1385  10.4594  59.7160   H         1 RES1   0.0000
    56 H23     27.8089   8.6451  59.4957   H         1 RES1   0.0000
@<TRIPOS>BOND
     1     1     3    2
     2     1    19    1
     3     1    20    1
     4     2     8    2
     5     2    18    1
     6     3     8    1
     7     4     5    2
     8     4    12    1
     9     5     6    1
    10     6     7    2
    11     6    21    1
    12     7    11    1
    13     7    20    1
    14     8    22    1
    15     9    10    2
    16     9    13    1
    17    10    17    1
    18    10    22    1
    19    11    12    2
    20    12    24    1
    21    13    16    2
    22    14    23    1
    23    14    28    1
    24    15    16    1
    25    15    17    2
    26    16    23    1
    27    18    19    2
    28    24    25    1
    29    24    26    1
    30    24    27    1
    31    28    29    1
    32    28    33    1
    33    29    32    1
    34    30    32    1
    35    31    32    1
    36    29    34    1
    37    29    35    1
    38    30    36    1
    39    30    37    1
    40    30    38    1
    41    31    39    1
    42    31    40    1
    43    31    41    1
    44    33    42    1
    45    28    43    1
    46    15    44    1
    47    20    45    1
    48    22    46    1
    49    18    47    1
    50    14    48    1
    51    14    49    1
    52    17    50    1
    53    13    51    1
    54    11    52    1
    55     9    53    1
    56     3    54    1
    57     4    55    1
    58     5    56    1
@<TRIPOS>SUBSTRUCTURE
     1 RES1        1 GROUP             0 ****  ****    0  
@<TRIPOS>MOLECULE
2J9M:A:PY8299
    36    38     1     0     0
SMALL
NO_CHARGES
****
Generated from the CSD

@<TRIPOS>ATOM
     1 Br1     25.6064   4.2059  63.4991   Br        1 RES1   0.0000
     2 C2      27.1574   4.7199  64.4762   C.2       1 RES1   0.0000
     3 C3      27.8864   3.7789  65.1902   C.2       1 RES1   0.0000
     4 N4      28.9644   4.1379  65.8622   N.2       1 RES1   0.0000
     5 C5      29.3784   5.4089  65.8772   C.2       1 RES1   0.0000
     6 N6      28.6914   6.3439  65.2042   N.2       1 RES1   0.0000
     7 C7      27.5934   6.0399  64.4912   C.2       1 RES1   0.0000
     8 N8      26.9284   6.9949  63.8351   N.pl3     1 RES1   0.0000
     9 C9      27.5824   7.9119  62.8801   C.3       1 RES1   0.0000
    10 C10     28.2054   9.1159  63.6001   C.3       1 RES1   0.0000
    11 C11     29.7034   9.1769  63.2971   C.3       1 RES1   0.0000
    12 N12     30.2814  10.3949  63.8931   N.pl3     1 RES1   0.0000
    13 S13     31.7844  10.2179  64.5822   S.o2      1 RES1   0.0000
    14 O14     32.1995  11.5578  65.1352   O.2       1 RES1   0.0000
    15 O15     32.7895   9.7339  63.5871   O.2       1 RES1   0.0000
    16 C16     31.7484   9.0599  65.8632   C.2       1 RES1   0.0000
    17 C17     31.1074   7.8399  65.6672   C.2       1 RES1   0.0000
    18 C18     32.3775   9.3599  67.0683   C.2       1 RES1   0.0000
    19 C19     32.3585   8.4389  68.1073   C.2       1 RES1   0.0000
    20 C20     31.7154   7.2179  67.9093   C.2       1 RES1   0.0000
    21 C21     31.0704   6.9059  66.7022   C.2       1 RES1   0.0000
    22 N22     30.4744   5.7089  66.5742   N.pl3     1 RES1   0.0000
    23 H1      30.6373   7.6160  64.7107   H         1 RES1   0.0000
    24 H2      32.8838  10.3156  67.1960   H         1 RES1   0.0000
    25 H3      32.8369   8.6661  69.0588   H         1 RES1   0.0000
    26 H4      31.7134   6.4848  68.7146   H         1 RES1   0.0000
    27 H5      30.9123   4.9383  67.0689   H         1 RES1   0.0000
    28 H6      25.9318   7.0944  63.9999   H         1 RES1   0.0000
    29 H7      29.7932  11.2847  63.8835   H         1 RES1   0.0000
    30 H8      27.5670   2.7378  65.1960   H         1 RES1   0.0000
    31 H9      26.8409   8.2696  62.1673   H         1 RES1   0.0000
    32 H10     28.3652   7.3720  62.3493   H         1 RES1   0.0000
    33 H11     29.8542   9.1949  62.2187   H         1 RES1   0.0000
    34 H12     30.1938   8.3002  63.7177   H         1 RES1   0.0000
    35 H13     28.0569   9.0125  64.6740   H         1 RES1   0.0000
    36 H14     27.7282  10.0316  63.2542   H         1 RES1   0.0000
@<TRIPOS>BOND
     1     1     2    1
     2     2     3    2
     3     2     7    1
     4     3     4    1
     5     4     5    2
     6     5     6    1
     7     5    22    1
     8     6     7    2
     9     7     8    1
    10     8     9    1
    11     9    10    1
    12    10    11    1
    13    11    12    1
    14    12    13    1
    15    13    14    2
    16    13    15    2
    17    13    16    1
    18    16    17    1
    19    16    18    2
    20    17    21    2
    21    18    19    1
    22    19    20    2
    23    20    21    1
    24    21    22    1
    25    17    23    1
    26    18    24    1
    27    19    25    1
    28    20    26    1
    29    22    27    1
    30     8    28    1
    31    12    29    1
    32     3    30    1
    33     9    31    1
    34     9    32    1
    35    11    33    1
    36    11    34    1
    37    10    35    1
    38    10    36    1
@<TRIPOS>SUBSTRUCTURE
     1 RES1        1 GROUP             0 ****  ****    0  
@<TRIPOS>MOLECULE
4BZD:A:D6I1300
    52    55     1     0     0
SMALL
NO_CHARGES
****
Generated from the CSD

@<TRIPOS>ATOM
     1 C1      25.1660   8.5358  60.3221   C.2       1 RES1   0.0000
     2 C2      26.3700   8.4998  60.9891   C.2       1 RES1   0.0000
     3 C3      24.2210   7.5378  60.5011   C.2       1 RES1   0.0000
     4 C4      26.6690   7.4708  61.8691   C.2       1 RES1   0.0000
     5 C5      31.8080   8.6668  66.1191   C.2       1 RES1   0.0000
     6 C6      31.2920   7.3998  66.2881   C.2       1 RES1   0.0000
     7 C7      27.6680   5.7089  64.2611   C.2       1 RES1   0.0000
     8 C8      30.1300   9.0678  64.4841   C.2       1 RES1   0.0000
     9 C9      27.5960   3.1029  64.8061   C.2       1 RES1   0.0000
    10 C10     24.4720   4.7229  62.5981   C.2       1 RES1   0.0000
    11 C11     24.4970   6.4949  61.3841   C.2       1 RES1   0.0000
    12 C12     25.7200   6.4729  62.0481   C.2       1 RES1   0.0000
    13 C13     31.2090   9.5198  65.2191   C.2       1 RES1   0.0000
    14 C14     26.7250   4.8479  63.6971   C.2       1 RES1   0.0000
    15 C15     30.1840   7.0238  65.5321   C.2       1 RES1   0.0000
    16 C16     28.6150   5.0939  65.0831   C.2       1 RES1   0.0000
    17 C17     32.0280  15.6357  66.5581   C.3       1 RES1   0.0000
    18 C18     30.7440  14.2377  67.9921   C.3       1 RES1   0.0000
    19 C19     31.4870  13.1027  64.5681   C.3       1 RES1   0.0000
    20 C20     31.7870  13.3067  66.0411   C.3       1 RES1   0.0000
    21 C21     30.9970  11.7197  64.2401   C.3       1 RES1   0.0000
    22 N22     29.6130   7.8398  64.6381   N.2       1 RES1   0.0000
    23 N23     26.6450   3.5479  63.9831   N.2       1 RES1   0.0000
    24 N24     28.5860   3.7889  65.3731   N.2       1 RES1   0.0000
    25 N25     23.7350   5.3899  61.7431   N.2       1 RES1   0.0000
    26 N26     25.6810   5.3349  62.8581   N.pl3     1 RES1   0.0000
    27 N27     29.6450   5.7659  65.7181   N.pl3     1 RES1   0.0000
    28 N28     31.1420  14.4837  66.6141   N.3       1 RES1   0.0000
    29 O29     31.7160  10.7858  65.0521   O.3       1 RES1   0.0000
    30 H1      24.1624   3.7842  63.0552   H         1 RES1   0.0000
    31 H2      30.0877   5.2339  66.4605   H         1 RES1   0.0000
    32 H3      24.9530   9.3607  59.6438   H         1 RES1   0.0000
    33 H4      23.2765   7.5679  59.9598   H         1 RES1   0.0000
    34 H5      29.6812   9.7355  63.7501   H         1 RES1   0.0000
    35 H6      27.0988   9.2918  60.8229   H         1 RES1   0.0000
    36 H7      27.6655   6.7817  64.0739   H         1 RES1   0.0000
    37 H8      31.7413   6.7070  66.9981   H         1 RES1   0.0000
    38 H9      32.6778   8.9889  66.6897   H         1 RES1   0.0000
    39 H10     27.6179   7.4460  62.4029   H         1 RES1   0.0000
    40 H11     27.5575   2.0411  65.0450   H         1 RES1   0.0000
    41 H12     32.9141  15.4418  67.1607   H         1 RES1   0.0000
    42 H13     32.3235  15.8165  65.5257   H         1 RES1   0.0000
    43 H14     31.5098  16.5114  66.9460   H         1 RES1   0.0000
    44 H15     30.2245  15.1120  68.3815   H         1 RES1   0.0000
    45 H16     30.0809  13.3747  68.0299   H         1 RES1   0.0000
    46 H17     31.6288  14.0423  68.5961   H         1 RES1   0.0000
    47 H18     32.3986  13.2883  64.0021   H         1 RES1   0.0000
    48 H19     30.7225  13.8186  64.2700   H         1 RES1   0.0000
    49 H20     32.8642  13.4125  66.1610   H         1 RES1   0.0000
    50 H21     31.4456  12.4280  66.5863   H         1 RES1   0.0000
    51 H22     31.1746  11.5058  63.1872   H         1 RES1   0.0000
    52 H23     29.9310  11.6468  64.4505   H         1 RES1   0.0000
@<TRIPOS>BOND
     1     1     2    2
     2     1     3    1
     3     2     4    1
     4     3    11    2
     5     4    12    2
     6     5     6    2
     7     5    13    1
     8     6    15    1
     9     7    14    2
    10     7    16    1
    11     8    13    2
    12     8    22    1
    13     9    23    2
    14     9    24    1
    15    10    25    2
    16    10    26    1
    17    11    12    1
    18    11    25    1
    19    12    26    1
    20    13    29    1
    21    14    23    1
    22    14    26    1
    23    15    22    2
    24    15    27    1
    25    16    24    2
    26    16    27    1
    27    17    28    1
    28    18    28    1
    29    19    20    1
    30    19    21    1
    31    20    28    1
    32    21    29    1
    33    10    30    1
    34    27    31    1
    35     1    32    1
    36     3    33    1
    37     8    34    1
    38     2    35    1
    39     7    36    1
    40     6    37    1
    41     5    38    1
    42     4    39    1
    43     9    40    1
    44    17    41    1
    45    17    42    1
    46    17    43    1
    47    18    44    1
    48    18    45    1
    49    18    46    1
    50    19    47    1
    51    19    48    1
    52    20    49    1
    53    20    50    1
    54    21    51    1
    55    21    52    1
@<TRIPOS>SUBSTRUCTURE
     1 RES1        1 GROUP             0 ****  ****    0  
@<TRIPOS>MOLECULE
3QL8:A:X01300
    23    24     1     0     0
SMALL
NO_CHARGES
****
Generated from the CSD

@<TRIPOS>ATOM
     1 N1      28.2609   7.9159  63.5872   N.2       1 RES1   0.0000
     2 N2      29.4229   6.5079  65.1592   N.2       1 RES1   0.0000
     3 N3      30.2709   8.6999  64.6632   N.2       1 RES1   0.0000
     4 N4      31.2699   7.3169  66.1002   N.pl3     1 RES1   0.0000
     5 N5      23.5269   5.3189  61.3972   N.1       1 RES1   0.0000
     6 C6      25.4169   4.9539  62.9592   C.2       1 RES1   0.0000
     7 C7      25.5509   3.6979  63.6122   C.2       1 RES1   0.0000
     8 C8      26.6369   3.4629  64.4972   C.2       1 RES1   0.0000
     9 C9      27.6019   4.4769  64.7392   C.2       1 RES1   0.0000
    10 C10     27.4809   5.7619  64.0822   C.2       1 RES1   0.0000
    11 C11     26.3739   5.9829  63.1902   C.2       1 RES1   0.0000
    12 C12     28.4119   6.7589  64.2872   C.2       1 RES1   0.0000
    13 C13     30.3069   7.5109  65.2982   C.2       1 RES1   0.0000
    14 C14     29.2229   8.8408  63.8242   C.2       1 RES1   0.0000
    15 C15     24.4089   5.1559  62.1342   C.1       1 RES1   0.0000
    16 O16     28.6379   4.2169  65.5892   O.3       1 RES1   0.0000
    17 H1      31.9659   8.0419  66.2423   H         1 RES1   0.0000
    18 H2      31.3447   6.4366  66.6000   H         1 RES1   0.0000
    19 H3      29.1429   9.7853  63.2880   H         1 RES1   0.0000
    20 H4      26.2671   6.9434  62.6883   H         1 RES1   0.0000
    21 H5      29.1651   3.4497  65.2436   H         1 RES1   0.0000
    22 H6      24.8178   2.9128  63.4331   H         1 RES1   0.0000
    23 H7      26.7304   2.4983  64.9938   H         1 RES1   0.0000
@<TRIPOS>BOND
     1     1    12    2
     2     1    14    1
     3     2    12    1
     4     2    13    2
     5     3    13    1
     6     3    14    2
     7     4    13    1
     8     5    15    3
     9     6     7    2
    10     6    11    1
    11     6    15    1
    12     7     8    1
    13     8     9    2
    14     9    10    1
    15     9    16    1
    16    10    11    2
    17    10    12    1
    18     4    17    1
    19     4    18    1
    20    14    19    1
    21    11    20    1
    22    16    21    1
    23     7    22    1
    24     8    23    1
@<TRIPOS>SUBSTRUCTURE
     1 RES1        1 GROUP             0 ****  ****    0  
@<TRIPOS>MOLECULE
3RPY:A:27Z470
    31    32     1     0     0
SMALL
NO_CHARGES
****
Generated from the CSD

@<TRIPOS>ATOM
     1 C1      25.5686   5.0319  63.0338   C.2       1 RES1   0.0000
     2 N2      28.3756   4.2709  65.3557   N.2       1 RES1   0.0000
     3 O3      34.4958  10.1638  64.0428   O.2       1 RES1   0.0000
     4 S4      27.6896   6.4729  64.2188   S.3       1 RES1   0.0000
     5 N5      26.7706   2.7399  64.5798   N.pl3     1 RES1   0.0000
     6 O6      33.9438  11.1338  66.4457   O.2       1 RES1   0.0000
     7 S7      33.3258  10.6618  65.0118   S.o2      1 RES1   0.0000
     8 N8      29.7997   6.0349  65.9397   N.pl3     1 RES1   0.0000
     9 N9      32.5707  11.8287  64.3118   N.pl3     1 RES1   0.0000
    10 C10     26.7656   5.0619  63.9238   C.2       1 RES1   0.0000
    11 C11     27.2796   3.9829  64.6158   C.2       1 RES1   0.0000
    12 C12     28.7147   5.5549  65.2477   C.2       1 RES1   0.0000
    13 C13     30.5907   7.1268  65.6727   C.2       1 RES1   0.0000
    14 C14     30.4137   8.0478  64.4908   C.2       1 RES1   0.0000
    15 C15     31.2717   9.1578  64.2858   C.2       1 RES1   0.0000
    16 C16     32.3487   9.4158  65.2397   C.2       1 RES1   0.0000
    17 C17     32.5387   8.5348  66.4007   C.2       1 RES1   0.0000
    18 C18     31.6787   7.4108  66.6137   C.2       1 RES1   0.0000
    19 O19     24.9276   3.9879  62.8578   O.2       1 RES1   0.0000
    20 N20     25.2376   6.1769  62.4358   N.am      1 RES1   0.0000
    21 H1      31.7885  12.2783  64.7768   H         1 RES1   0.0000
    22 H2      32.8604  12.1402  63.3902   H         1 RES1   0.0000
    23 H3      25.9478   2.5445  64.0185   H         1 RES1   0.0000
    24 H4      27.2089   1.9963  65.1139   H         1 RES1   0.0000
    25 H5      30.0543   5.5068  66.7683   H         1 RES1   0.0000
    26 H6      29.6106   7.8561  63.7807   H         1 RES1   0.0000
    27 H7      33.3424   8.7395  67.1064   H         1 RES1   0.0000
    28 H8      31.1297   9.8114  63.4264   H         1 RES1   0.0000
    29 H9      31.8328   6.7649  67.4768   H         1 RES1   0.0000
    30 H10     24.4319   6.2132  61.8195   H         1 RES1   0.0000
    31 H11     25.7913   7.0122  62.5969   H         1 RES1   0.0000
@<TRIPOS>BOND
     1     1    10    1
     2     1    19    2
     3     1    20   am
     4     2    11    1
     5     2    12    2
     6     3     7    2
     7     4    10    1
     8     4    12    1
     9     5    11    1
    10     6     7    2
    11     7     9    1
    12     7    16    1
    13     8    12    1
    14     8    13    1
    15    10    11    2
    16    13    14    2
    17    13    18    1
    18    14    15    1
    19    15    16    2
    20    16    17    1
    21    17    18    2
    22     9    21    1
    23     9    22    1
    24     5    23    1
    25     5    24    1
    26     8    25    1
    27    14    26    1
    28    17    27    1
    29    15    28    1
    30    18    29    1
    31    20    30    1
    32    20    31    1
@<TRIPOS>SUBSTRUCTURE
     1 RES1        1 GROUP             0 ****  ****    0  
@<TRIPOS>MOLECULE
3WBL:A:PDY302
    53    56     1     0     0
SMALL
NO_CHARGES
****
Generated from the CSD

@<TRIPOS>ATOM
     1 C1      24.9649  10.1301  61.4026   C.3       1 RES1   0.0000
     2 C2      23.9839  10.1581  60.2316   C.3       1 RES1   0.0000
     3 C3      24.5779   9.4241  59.0185   C.3       1 RES1   0.0000
     4 N4      25.1489   8.1161  59.3616   N.3       1 RES1   0.0000
     5 C5      25.9789   7.9391  60.5446   C.3       1 RES1   0.0000
     6 C6      25.4109   8.7041  61.7606   C.3       1 RES1   0.0000
     7 N7      26.3729   8.7911  62.8586   N.pl3     1 RES1   0.0000
     8 C8      26.9409   7.7121  63.4887   C.2       1 RES1   0.0000
     9 C9      28.1709   7.9551  64.3187   C.2       1 RES1   0.0000
    10 C10     28.7269   9.3631  64.4117   C.3       1 RES1   0.0000
    11 N11     26.4259   6.4411  63.3797   N.2       1 RES1   0.0000
    12 C12     27.0129   5.4011  64.0457   C.2       1 RES1   0.0000
    13 C13     26.5799   4.0310  64.1017   C.2       1 RES1   0.0000
    14 C14     27.5399   3.4330  64.9297   C.2       1 RES1   0.0000
    15 N15     28.4989   4.3200  65.4047   N.pl3     1 RES1   0.0000
    16 N16     28.1589   5.5411  64.8407   N.pl3     1 RES1   0.0000
    17 C17     28.8169   6.7851  65.0097   C.2       1 RES1   0.0000
    18 N18     29.9349   6.8351  65.7827   N.2       1 RES1   0.0000
    19 C19     30.9109   7.7861  65.7417   C.2       1 RES1   0.0000
    20 C20     31.4689   8.2611  64.5357   C.2       1 RES1   0.0000
    21 C21     32.4619   9.2551  64.5737   C.2       1 RES1   0.0000
    22 C22     31.3529   8.2951  66.9668   C.2       1 RES1   0.0000
    23 C23     32.3419   9.2731  67.0038   C.2       1 RES1   0.0000
    24 C24     32.9109   9.7571  65.8097   C.2       1 RES1   0.0000
    25 O25     33.8919  10.7371  65.8427   O.3       1 RES1   0.0000
    26 C26     34.6889  11.0411  66.9998   C.3       1 RES1   0.0000
    27 C27     36.0759  10.4251  66.8738   C.3       1 RES1   0.0000
    28 H1      23.7784  11.1925  59.9601   H         1 RES1   0.0000
    29 H2      23.0569   9.6697  60.5281   H         1 RES1   0.0000
    30 H3      25.7155   7.8332  58.5684   H         1 RES1   0.0000
    31 H4      25.3637  10.0437  58.5888   H         1 RES1   0.0000
    32 H5      23.7892   9.2759  58.2824   H         1 RES1   0.0000
    33 H6      26.9807   8.3090  60.3314   H         1 RES1   0.0000
    34 H7      26.0274   6.8784  60.7862   H         1 RES1   0.0000
    35 H8      24.5388   8.1606  62.1211   H         1 RES1   0.0000
    36 H9      27.5349   2.3726  65.1777   H         1 RES1   0.0000
    37 H10     26.6400   9.7168  63.1780   H         1 RES1   0.0000
    38 H11     25.7184   3.5713  63.6196   H         1 RES1   0.0000
    39 H12     27.9736  10.0234  64.8389   H         1 RES1   0.0000
    40 H13     29.6116   9.3628  65.0467   H         1 RES1   0.0000
    41 H14     28.9947   9.7141  63.4162   H         1 RES1   0.0000
    42 H15     29.2757   4.1189  66.0263   H         1 RES1   0.0000
    43 H16     32.8845   9.6374  63.6457   H         1 RES1   0.0000
    44 H17     30.9214   7.9246  67.8955   H         1 RES1   0.0000
    45 H18     32.6781   9.6668  67.9619   H         1 RES1   0.0000
    46 H19     34.1992  10.6413  67.8865   H         1 RES1   0.0000
    47 H20     34.7847  12.1218  67.0942   H         1 RES1   0.0000
    48 H21     31.1321   7.8598  63.5810   H         1 RES1   0.0000
    49 H22     36.5714  10.8242  65.9900   H         1 RES1   0.0000
    50 H23     36.6623  10.6669  67.7590   H         1 RES1   0.0000
    51 H24     35.9859   9.3437  66.7823   H         1 RES1   0.0000
    52 H25     24.4835  10.5745  62.2725   H         1 RES1   0.0000
    53 H26     25.8441  10.7147  61.1360   H         1 RES1   0.0000
@<TRIPOS>BOND
     1     1     2    1
     2     1     6    1
     3     2     3    1
     4     3     4    1
     5     4     5    1
     6     5     6    1
     7     6     7    1
     8     7     8    1
     9     8     9    2
    10     8    11    1
    11     9    10    1
    12     9    17    1
    13    11    12    2
    14    12    13    1
    15    12    16    1
    16    13    14    2
    17    14    15    1
    18    15    16    1
    19    16    17    1
    20    17    18    2
    21    18    19    1
    22    19    20    2
    23    19    22    1
    24    20    21    1
    25    21    24    2
    26    22    23    2
    27    23    24    1
    28    24    25    1
    29    25    26    1
    30    26    27    1
    31     2    28    1
    32     2    29    1
    33     4    30    1
    34     3    31    1
    35     3    32    1
    36     5    33    1
    37     5    34    1
    38     6    35    1
    39    14    36    1
    40     7    37    1
    41    13    38    1
    42    10    39    1
    43    10    40    1
    44    10    41    1
    45    15    42    1
    46    21    43    1
    47    22    44    1
    48    23    45    1
    49    26    46    1
    50    26    47    1
    51    20    48    1
    52    27    49    1
    53    27    50    1
    54    27    51    1
    55     1    52    1
    56     1    53    1
@<TRIPOS>SUBSTRUCTURE
     1 RES1        1 GROUP             0 ****  ****    0  
@<TRIPOS>MOLECULE
1FVT:A:106299
    34    36     1     0     0
SMALL
NO_CHARGES
****
Generated from the CSD

@<TRIPOS>ATOM
     1 N1      26.7001   3.1590  64.5950   N.am      1 RES1   0.0000
     2 C2      27.5871   4.0780  65.0720   C.2       1 RES1   0.0000
     3 C3      27.3471   5.3780  64.4030   C.2       1 RES1   0.0000
     4 C4      25.5021   6.0580  62.6600   C.2       1 RES1   0.0000
     5 C5      24.3481   5.4890  61.9120   C.2       1 RES1   0.0000
     6 C6      23.9501   4.0620  62.0470   C.2       1 RES1   0.0000
     7 C7      24.7411   3.1930  62.9370   C.2       1 RES1   0.0000
     8 C8      25.8631   3.7550  63.7150   C.2       1 RES1   0.0000
     9 C9      26.2251   5.1490  63.5650   C.2       1 RES1   0.0000
    10 O10     28.4631   3.9420  65.9220   O.2       1 RES1   0.0000
    11 N11     28.0941   6.6050  64.6170   N.2       1 RES1   0.0000
    12 Br12    23.4051   6.5560  60.7191   Br        1 RES1   0.0000
    13 N13     29.3131   6.6210  64.8480   N.pl3     1 RES1   0.0000
    14 C14     30.1211   7.7090  64.8060   C.2       1 RES1   0.0000
    15 C15     31.1641   7.7660  65.8450   C.2       1 RES1   0.0000
    16 C16     32.1551   8.8490  65.8190   C.2       1 RES1   0.0000
    17 C17     32.0831   9.9039  64.7760   C.2       1 RES1   0.0000
    18 C18     31.0271   9.8629  63.7330   C.2       1 RES1   0.0000
    19 C19     30.0511   8.7770  63.7500   C.2       1 RES1   0.0000
    20 S20     33.5161  10.9269  64.6150   S.o2      1 RES1   0.0000
    21 O21     34.5791  10.0569  64.1920   O.2       1 RES1   0.0000
    22 O22     33.6391  11.5709  65.8900   O.2       1 RES1   0.0000
    23 N23     33.3271  12.1249  63.5070   N.pl3     1 RES1   0.0000
    24 H1      34.0853  12.7758  63.3290   H         1 RES1   0.0000
    25 H2      32.4521  12.2142  63.0004   H         1 RES1   0.0000
    26 H3      24.4975   2.1349  63.0208   H         1 RES1   0.0000
    27 H4      29.7463   5.7360  65.0914   H         1 RES1   0.0000
    28 H5      31.1998   7.0095  66.6275   H         1 RES1   0.0000
    29 H6      32.9458   8.8789  66.5672   H         1 RES1   0.0000
    30 H7      26.6721   2.1794  64.8592   H         1 RES1   0.0000
    31 H8      30.9811  10.6333  62.9647   H         1 RES1   0.0000
    32 H9      25.7983   7.0994  62.5433   H         1 RES1   0.0000
    33 H10     23.0941   3.6684  61.5009   H         1 RES1   0.0000
    34 H11     29.2683   8.7405  62.9938   H         1 RES1   0.0000
@<TRIPOS>BOND
     1     1     2   am
     2     1     8    1
     3     2     3    1
     4     2    10    2
     5     3     9    1
     6     3    11    2
     7     4     5    1
     8     4     9    2
     9     5     6    2
    10     5    12    1
    11     6     7    1
    12     7     8    2
    13     8     9    1
    14    11    13    1
    15    13    14    1
    16    14    15    2
    17    14    19    1
    18    15    16    1
    19    16    17    2
    20    17    18    1
    21    17    20    1
    22    18    19    2
    23    20    21    2
    24    20    22    2
    25    20    23    1
    26    23    24    1
    27    23    25    1
    28     7    26    1
    29    13    27    1
    30    15    28    1
    31    16    29    1
    32     1    30    1
    33    18    31    1
    34     4    32    1
    35     6    33    1
    36    19    34    1
@<TRIPOS>SUBSTRUCTURE
     1 RES1        1 GROUP             0 ****  ****    0  
@<TRIPOS>MOLECULE
1JVP:P:LIG301
    58    64     1     0     0
SMALL
NO_CHARGES
****
Generated from the CSD

@<TRIPOS>ATOM
     1 N1      28.5283   3.8309  65.4521   N.pl3     1 RES1   0.0000
     2 N2      27.3673   3.3650  64.8771   N.2       1 RES1   0.0000
     3 C3      26.9013   4.2629  64.1521   C.2       1 RES1   0.0000
     4 C4      27.6083   5.3129  64.1521   C.2       1 RES1   0.0000
     5 C5      28.6463   5.0749  64.9561   C.2       1 RES1   0.0000
     6 C6      29.7653   6.0429  65.2641   C.2       1 RES1   0.0000
     7 C7      29.8073   7.2969  64.6581   C.2       1 RES1   0.0000
     8 C8      30.8573   8.1699  64.9581   C.2       1 RES1   0.0000
     9 N9      31.8283   7.8079  65.8311   N.2       1 RES1   0.0000
    10 C10     31.8063   6.5939  66.4250   C.2       1 RES1   0.0000
    11 C11     30.7773   5.6879  66.1560   C.2       1 RES1   0.0000
    12 C12     27.0753   6.4569  63.2741   C.3       1 RES1   0.0000
    13 C13     25.7773   5.6449  62.7611   C.2       1 RES1   0.0000
    14 C14     25.7133   4.3689  63.2921   C.2       1 RES1   0.0000
    15 C15     24.6952   3.4650  63.0131   C.2       1 RES1   0.0000
    16 C16     23.6952   3.9029  62.1282   C.2       1 RES1   0.0000
    17 C17     23.7432   5.2029  61.5732   C.2       1 RES1   0.0000
    18 C18     24.7903   6.0929  61.8862   C.2       1 RES1   0.0000
    19 N19     29.7313   5.3229  66.0131   N.pl3     1 RES1   0.0000
    20 N20     28.6683   4.5619  65.5901   N.2       1 RES1   0.0000
    21 C21     28.0283   5.2229  64.7521   C.2       1 RES1   0.0000
    22 C22     28.5223   6.3669  64.5411   C.2       1 RES1   0.0000
    23 C23     29.6033   6.4629  65.3181   C.2       1 RES1   0.0000
    24 C24     30.5363   7.6529  65.4091   C.2       1 RES1   0.0000
    25 C25     30.3143   8.7959  64.6411   C.2       1 RES1   0.0000
    26 C26     31.1923   9.8779  64.7551   C.2       1 RES1   0.0000
    27 N27     32.2503   9.8249  65.6001   N.2       1 RES1   0.0000
    28 C28     32.4843   8.7219  66.3490   C.2       1 RES1   0.0000
    29 C29     31.6343   7.6159  66.2710   C.2       1 RES1   0.0000
    30 C30     27.7613   7.2259  63.5171   C.3       1 RES1   0.0000
    31 C31     26.6303   6.1129  63.2171   C.2       1 RES1   0.0000
    32 C32     26.8203   4.9589  63.9591   C.2       1 RES1   0.0000
    33 C33     25.9943   3.8479  63.8891   C.2       1 RES1   0.0000
    34 C34     24.9043   3.9349  63.0051   C.2       1 RES1   0.0000
    35 C35     24.6892   5.1059  62.2402   C.2       1 RES1   0.0000
    36 C36     25.5553   6.2129  62.3392   C.2       1 RES1   0.0000
    37 H1      29.1474   3.3499  66.0967   H         1 RES1   0.0000
    38 H2      29.4661   8.8450  63.9599   H         1 RES1   0.0000
    39 H3      30.8952   9.1503  64.4856   H         1 RES1   0.0000
    40 H4      24.6735   2.4706  63.4565   H         1 RES1   0.0000
    41 H5      28.3589   7.4718  62.6406   H         1 RES1   0.0000
    42 H6      27.3548   8.1400  63.9474   H         1 RES1   0.0000
    43 H7      27.7552   6.7253  62.4669   H         1 RES1   0.0000
    44 H8      26.8206   7.3482  63.8457   H         1 RES1   0.0000
    45 H9      33.3429   8.6964  67.0184   H         1 RES1   0.0000
    46 H10     30.4455   5.0795  66.6920   H         1 RES1   0.0000
    47 H11     22.9564   5.5222  60.8913   H         1 RES1   0.0000
    48 H12     24.8264   7.0942  61.4596   H         1 RES1   0.0000
    49 H13     22.8756   3.2350  61.8673   H         1 RES1   0.0000
    50 H14     31.8265   6.7321  66.8775   H         1 RES1   0.0000
    51 H15     24.2196   3.0937  62.9082   H         1 RES1   0.0000
    52 H16     26.1795   2.9562  64.4862   H         1 RES1   0.0000
    53 H17     23.8382   5.1523  61.5623   H         1 RES1   0.0000
    54 H18     29.0290   7.5944  63.9569   H         1 RES1   0.0000
    55 H19     31.0241  10.7731  64.1583   H         1 RES1   0.0000
    56 H20     25.3895   7.1138  61.7502   H         1 RES1   0.0000
    57 H21     32.5984   6.3193  67.1200   H         1 RES1   0.0000
    58 H22     30.7654   4.7119  66.6390   H         1 RES1   0.0000
@<TRIPOS>BOND
     1     1     2    1
     2     1     5    1
     3    19    20    1
     4    19    23    1
     5     2     3    2
     6    20    21    2
     7     3     4    1
     8     3    14    1
     9    21    22    1
    10    21    32    1
    11     4     5    2
    12     4    12    1
    13    22    23    2
    14    22    30    1
    15     5     6    1
    16    23    24    1
    17     6     7    2
    18     6    11    1
    19    24    25    2
    20    24    29    1
    21     7     8    1
    22    25    26    1
    23     8     9    2
    24    26    27    2
    25     9    10    1
    26    27    28    1
    27    10    11    2
    28    28    29    2
    29    12    13    1
    30    30    31    1
    31    13    14    2
    32    13    18    1
    33    31    32    2
    34    31    36    1
    35    14    15    1
    36    32    33    1
    37    15    16    2
    38    33    34    2
    39    16    17    1
    40    34    35    1
    41    17    18    2
    42    35    36    2
    43     1    37    1
    44    25    38    1
    45     8    39    1
    46    15    40    1
    47    30    41    1
    48    30    42    1
    49    12    43    1
    50    12    44    1
    51    28    45    1
    52    19    46    1
    53    17    47    1
    54    18    48    1
    55    16    49    1
    56    29    50    1
    57    34    51    1
    58    33    52    1
    59    35    53    1
    60     7    54    1
    61    26    55    1
    62    36    56    1
    63    10    57    1
    64    11    58    1
@<TRIPOS>SUBSTRUCTURE
     1 RES1        1 GROUP             0 ****  ****    0  
@<TRIPOS>MOLECULE
3ULI:A:1N3299
    53    56     1     0     0
SMALL
NO_CHARGES
****
Generated from the CSD

@<TRIPOS>ATOM
     1 C1      33.7954  12.2970  64.1517   C.3       1 RES1   0.0000
     2 O2      34.0304  11.1980  65.0547   O.3       1 RES1   0.0000
     3 C3      32.9794  10.2670  65.0467   C.2       1 RES1   0.0000
     4 C4      31.9965  10.2950  64.0747   C.2       1 RES1   0.0000
     5 C5      30.9945   9.3500  64.1097   C.2       1 RES1   0.0000
     6 C6      30.9565   8.3880  65.1097   C.2       1 RES1   0.0000
     7 C7      31.9355   8.3580  66.0846   C.2       1 RES1   0.0000
     8 C8      32.9384   9.3070  66.0476   C.2       1 RES1   0.0000
     9 C9      29.8695   7.3730  65.0187   C.2       1 RES1   0.0000
    10 N10     29.9955   6.0650  65.4837   N.pl3     1 RES1   0.0000
    11 C11     28.8785   5.4650  65.0897   C.2       1 RES1   0.0000
    12 C12     28.0675   6.5200  64.3947   C.2       1 RES1   0.0000
    13 N13     28.7475   7.6230  64.3987   N.2       1 RES1   0.0000
    14 C14     26.8345   6.1840  63.8547   C.2       1 RES1   0.0000
    15 C15     26.4686   4.8530  64.0527   C.2       1 RES1   0.0000
    16 C16     27.2565   3.9280  64.7037   C.2       1 RES1   0.0000
    17 N17     28.4385   4.2430  65.2077   N.2       1 RES1   0.0000
    18 Br18    24.8186   4.1930  63.4127   Br        1 RES1   0.0000
    19 N19     25.9166   7.0120  63.1607   N.pl3     1 RES1   0.0000
    20 C20     26.3426   8.3670  62.8167   C.3       1 RES1   0.0000
    21 C21     27.2075   8.3200  61.5658   C.3       1 RES1   0.0000
    22 C22     26.5286   7.6060  60.4188   C.3       1 RES1   0.0000
    23 N23     25.4126   8.3770  59.9329   N.am      1 RES1   0.0000
    24 C24     24.1166   8.0650  60.2838   C.2       1 RES1   0.0000
    25 O25     23.8096   7.0720  60.9408   O.2       1 RES1   0.0000
    26 C26     23.0546   9.0140  59.8329   C.3       1 RES1   0.0000
    27 C27     21.9886   9.3420  60.8438   C.2       1 RES1   0.0000
    28 C28     21.6596   8.4550  59.7019   C.2       1 RES1   0.0000
    29 C29     23.3326  10.1060  58.8399   C.3       1 RES1   0.0000
    30 N30     23.5866   9.6560  57.4529   N.3       1 RES1   0.0000
    31 H1      22.7757   9.1535  57.1064   H         1 RES1   0.0000
    32 H2      23.7626  10.4626  56.8624   H         1 RES1   0.0000
    33 H3      20.9372   7.8446  59.1620   H         1 RES1   0.0000
    34 H4      24.2096  10.6542  59.1808   H         1 RES1   0.0000
    35 H5      22.4715  10.7724  58.8241   H         1 RES1   0.0000
    36 H6      32.8831  12.8162  64.4415   H         1 RES1   0.0000
    37 H7      34.6358  12.9883  64.1948   H         1 RES1   0.0000
    38 H8      33.6898  11.9167  63.1367   H         1 RES1   0.0000
    39 H9      32.0141  11.0529  63.2929   H         1 RES1   0.0000
    40 H10     30.2218   9.3579  63.3424   H         1 RES1   0.0000
    41 H11     33.7095   9.3016  66.8165   H         1 RES1   0.0000
    42 H12     31.9166   7.6007  66.8670   H         1 RES1   0.0000
    43 H13     30.7671   5.6621  66.0057   H         1 RES1   0.0000
    44 H14     25.5844   9.1669  59.3190   H         1 RES1   0.0000
    45 H15     26.1716   6.6360  60.7617   H         1 RES1   0.0000
    46 H16     27.2449   7.4643  59.6109   H         1 RES1   0.0000
    47 H17     26.9171   8.7879  63.6406   H         1 RES1   0.0000
    48 H18     25.4671   8.9873  62.6305   H         1 RES1   0.0000
    49 H19     26.8947   2.9060  64.8063   H         1 RES1   0.0000
    50 H20     28.1345   7.7994  61.8015   H         1 RES1   0.0000
    51 H21     27.4322   9.3402  61.2581   H         1 RES1   0.0000
    52 H22     21.6819   9.8567  61.7531   H         1 RES1   0.0000
    53 H23     24.9926   6.6744  62.9106   H         1 RES1   0.0000
@<TRIPOS>BOND
     1     1     2    1
     2     2     3    1
     3     3     4    2
     4     3     8    1
     5     4     5    1
     6     5     6    2
     7     6     7    1
     8     6     9    1
     9     7     8    2
    10     9    10    1
    11     9    13    2
    12    10    11    1
    13    11    12    2
    14    11    17    1
    15    12    13    1
    16    12    14    1
    17    14    15    2
    18    14    19    1
    19    15    16    1
    20    15    18    1
    21    16    17    2
    22    19    20    1
    23    20    21    1
    24    21    22    1
    25    22    23    1
    26    23    24   am
    27    24    25    2
    28    24    26    1
    29    26    27    1
    30    26    28    1
    31    26    29    1
    32    27    28    2
    33    29    30    1
    34    30    31    1
    35    30    32    1
    36    28    33    1
    37    29    34    1
    38    29    35    1
    39     1    36    1
    40     1    37    1
    41     1    38    1
    42     4    39    1
    43     5    40    1
    44     8    41    1
    45     7    42    1
    46    10    43    1
    47    23    44    1
    48    22    45    1
    49    22    46    1
    50    20    47    1
    51    20    48    1
    52    16    49    1
    53    21    50    1
    54    21    51    1
    55    27    52    1
    56    19    53    1
@<TRIPOS>SUBSTRUCTURE
     1 RES1        1 GROUP             0 ****  ****    0  
@<TRIPOS>MOLECULE
1CKP:A:PVB299
    42    45     1     0     0
SMALL
NO_CHARGES
****
Generated from the CSD

@<TRIPOS>ATOM
     1 N1      28.6578   7.8138  64.1755   N.pl3     1 RES1   0.0000
     2 C2      24.9798   4.0869  63.6525   C.3       1 RES1   0.0000
     3 N3      26.3058   4.5039  64.2355   N.pl3     1 RES1   0.0000
     4 C4      26.9778   5.7398  64.1265   C.2       1 RES1   0.0000
     5 N5      26.5598   6.8588  63.4605   N.2       1 RES1   0.0000
     6 C6      27.4328   7.8518  63.5245   C.2       1 RES1   0.0000
     7 C7      29.0988   6.6868  64.8545   C.3       1 RES1   0.0000
     8 C8      28.1828   5.5488  64.8345   C.2       1 RES1   0.0000
     9 N9      28.2728   4.3039  65.3725   N.2       1 RES1   0.0000
    10 C10     27.1538   3.6849  65.0065   C.2       1 RES1   0.0000
    11 N11     30.3448   6.6728  65.4945   N.pl3     1 RES1   0.0000
    12 N12     30.3508   6.6778  65.4885   N.pl3     1 RES1   0.0000
    13 C13     31.0638   7.9298  65.6615   C.2       1 RES1   0.0000
    14 C14     30.9998   7.9568  65.7425   C.2       1 RES1   0.0000
    15 C15     31.2898   8.4227  66.9475   C.2       1 RES1   0.0000
    16 C16     31.1858   8.8717  64.6945   C.2       1 RES1   0.0000
    17 C17     31.9828   9.6187  67.1365   C.2       1 RES1   0.0000
    18 C18     31.8068  10.0937  64.9205   C.2       1 RES1   0.0000
    19 C19     32.4578  10.3367  66.0355   C.2       1 RES1   0.0000
    20 C20     32.2558  10.4147  66.1965   C.2       1 RES1   0.0000
    21 C21     32.2368   9.8517  64.7415   C.2       1 RES1   0.0000
    22 C22     32.0778   9.5017  67.2575   C.2       1 RES1   0.0000
    23 Cl23    32.8198  10.7267  63.3825   Cl        1 RES1   0.0000
    24 Cl24    32.6308   9.8817  68.8486   Cl        1 RES1   0.0000
    25 C25     31.5418   8.6497  64.5555   C.2       1 RES1   0.0000
    26 C26     31.4518   8.2808  67.0215   C.2       1 RES1   0.0000
    27 H1      25.0210   4.1616  62.5668   H         1 RES1   0.0000
    28 H2      24.7653   3.0580  63.9377   H         1 RES1   0.0000
    29 H3      24.1951   4.7398  64.0317   H         1 RES1   0.0000
    30 H4      29.2507   8.6374  64.1543   H         1 RES1   0.0000
    31 H5      27.1662   8.7804  63.0220   H         1 RES1   0.0000
    32 H6      26.9186   2.6558  65.2741   H         1 RES1   0.0000
    33 H7      30.7913   5.8053  65.7621   H         1 RES1   0.0000
    34 H8      30.7401   5.8025  65.8360   H         1 RES1   0.0000
    35 H9      30.9222   7.8693  67.8104   H         1 RES1   0.0000
    36 H10     30.8394   8.6209  63.6930   H         1 RES1   0.0000
    37 H11     32.9981  11.2705  66.1841   H         1 RES1   0.0000
    38 H12     31.9414  10.7979  64.1008   H         1 RES1   0.0000
    39 H13     32.1541   9.9938  68.1444   H         1 RES1   0.0000
    40 H14     32.7449  11.3708  66.3771   H         1 RES1   0.0000
    41 H15     31.3144   7.5753  67.8396   H         1 RES1   0.0000
    42 H16     31.3716   8.2722  63.5483   H         1 RES1   0.0000
@<TRIPOS>BOND
     1     1     6    1
     2     1     7    1
     3     2     3    1
     4     3     4    1
     5     3    10    1
     6     4     5    1
     7     4     8    2
     8     5     6    2
     9     7     8    1
    10     7    11    1
    11     7    12    1
    12     8     9    1
    13     9    10    2
    14    11    13    1
    15    12    14    1
    16    13    15    2
    17    13    25    1
    18    14    16    2
    19    14    26    1
    20    15    17    1
    21    16    18    1
    22    17    19    2
    23    18    20    2
    24    19    21    1
    25    20    22    1
    26    21    23    1
    27    21    25    2
    28    22    24    1
    29    22    26    2
    30     2    27    1
    31     2    28    1
    32     2    29    1
    33     1    30    1
    34     6    31    1
    35    10    32    1
    36    12    33    1
    37    11    34    1
    38    15    35    1
    39    16    36    1
    40    19    37    1
    41    18    38    1
    42    17    39    1
    43    20    40    1
    44    26    41    1
    45    25    42    1
@<TRIPOS>SUBSTRUCTURE
     1 RES1        1 GROUP             0 ****  ****    0  
@<TRIPOS>MOLECULE
2DUV:A:371501
    45    48     1     0     0
SMALL
NO_CHARGES
****
Generated from the CSD

@<TRIPOS>ATOM
     1 O1      26.6845   6.5511  63.0664   O.3       1 RES1   0.0000
     2 C2      26.1615   5.3051  63.3444   C.2       1 RES1   0.0000
     3 C3      26.7525   4.4551  64.2644   C.2       1 RES1   0.0000
     4 C4      28.0166   4.9261  64.9664   C.2       1 RES1   0.0000
     5 C5      29.7216   6.8131  65.2194   C.2       1 RES1   0.0000
     6 C6      30.1916   8.1051  64.8644   C.2       1 RES1   0.0000
     7 C7      29.4666   8.8812  63.8994   C.2       1 RES1   0.0000
     8 C8      28.2806   8.3571  63.2984   C.2       1 RES1   0.0000
     9 C9      27.8356   7.0581  63.6664   C.2       1 RES1   0.0000
    10 C10     28.5496   6.2841  64.6264   C.2       1 RES1   0.0000
    11 O11     28.4976   4.1151  65.7674   O.2       1 RES1   0.0000
    12 C12     24.9465   4.9971  62.5664   C.2       1 RES1   0.0000
    13 C13     24.6475   3.6821  62.0754   C.2       1 RES1   0.0000
    14 C14     23.4775   3.4501  61.3144   C.2       1 RES1   0.0000
    15 C15     22.6155   4.5311  61.0434   C.2       1 RES1   0.0000
    16 C16     22.9035   5.8511  61.5284   C.2       1 RES1   0.0000
    17 C17     24.0625   6.0741  62.2834   C.2       1 RES1   0.0000
    18 C18     31.4476   8.6401  65.5104   C.3       1 RES1   0.0000
    19 O19     26.3125   3.1981  64.6134   O.3       1 RES1   0.0000
    20 O20     22.0034   6.8701  61.2134   O.3       1 RES1   0.0000
    21 O21     21.4724   4.3621  60.3054   O.3       1 RES1   0.0000
    22 C22     26.8845  10.0712  60.2574   C.3       1 RES1   0.0000
    23 C23     27.9916   9.2622  60.9844   C.3       1 RES1   0.0000
    24 N24     27.5375   9.0502  62.3604   N.pl3     1 RES1   0.0000
    25 S25     26.0835   9.7272  62.6134   S.o2      1 RES1   0.0000
    26 C26     25.5465   9.7322  60.9344   C.3       1 RES1   0.0000
    27 O27     26.3415  11.0692  63.0504   O.2       1 RES1   0.0000
    28 O28     25.2655   8.8582  63.4164   O.2       1 RES1   0.0000
    29 H1      23.2470   2.4522  60.9442   H         1 RES1   0.0000
    30 H2      24.2865   7.0734  62.6538   H         1 RES1   0.0000
    31 H3      26.3026   2.6157  63.8092   H         1 RES1   0.0000
    32 H4      32.2824   7.9784  65.2841   H         1 RES1   0.0000
    33 H5      31.6587   9.6360  65.1238   H         1 RES1   0.0000
    34 H6      31.3073   8.6916  66.5891   H         1 RES1   0.0000
    35 H7      21.1087   6.6471  61.5820   H         1 RES1   0.0000
    36 H8      26.8502   9.7925  59.2052   H         1 RES1   0.0000
    37 H9      27.0856  11.1380  60.3440   H         1 RES1   0.0000
    38 H10     28.9259   9.8217  60.9815   H         1 RES1   0.0000
    39 H11     28.1407   8.3042  60.4885   H         1 RES1   0.0000
    40 H12     25.1662   8.7601  60.6241   H         1 RES1   0.0000
    41 H13     24.7904  10.4937  60.7494   H         1 RES1   0.0000
    42 H14     25.3256   2.8574  62.2900   H         1 RES1   0.0000
    43 H15     20.8803   3.7058  60.7579   H         1 RES1   0.0000
    44 H16     29.8214   9.8732  63.6240   H         1 RES1   0.0000
    45 H17     30.2675   6.2236  65.9545   H         1 RES1   0.0000
@<TRIPOS>BOND
     1     1     2    1
     2     1     9    1
     3     2     3    2
     4     2    12    1
     5     3     4    1
     6     3    19    1
     7     4    10    1
     8     4    11    2
     9     5     6    1
    10     5    10    2
    11     6     7    2
    12     6    18    1
    13     7     8    1
    14     8     9    2
    15     8    24    1
    16     9    10    1
    17    12    13    2
    18    12    17    1
    19    13    14    1
    20    14    15    2
    21    15    16    1
    22    15    21    1
    23    16    17    2
    24    16    20    1
    25    22    23    1
    26    22    26    1
    27    23    24    1
    28    24    25    1
    29    25    26    1
    30    25    27    2
    31    25    28    2
    32    14    29    1
    33    17    30    1
    34    19    31    1
    35    18    32    1
    36    18    33    1
    37    18    34    1
    38    20    35    1
    39    22    36    1
    40    22    37    1
    41    23    38    1
    42    23    39    1
    43    26    40    1
    44    26    41    1
    45    13    42    1
    46    21    43    1
    47     7    44    1
    48     5    45    1
@<TRIPOS>SUBSTRUCTURE
     1 RES1        1 GROUP             0 ****  ****    0  
@<TRIPOS>MOLECULE
5FP5:A:1Y61297
    15    15     1     0     0
SMALL
NO_CHARGES
****
Generated from the CSD

@<TRIPOS>ATOM
     1 C1      24.1271   4.9359  61.6018   C.2       1 RES1   0.0000
     2 O2      23.8931   3.8989  60.9218   O.3       1 RES1   0.0000
     3 C3      25.1751   4.8529  62.6879   C.2       1 RES1   0.0000
     4 C4      25.9251   5.9718  63.0449   C.2       1 RES1   0.0000
     5 C5      26.8781   5.8788  64.0449   C.2       1 RES1   0.0000
     6 C6      27.0651   4.6749  64.6669   C.2       1 RES1   0.0000
     7 F7      27.9921   4.5869  65.6570   F         1 RES1   0.0000
     8 C8      26.3491   3.5639  64.3399   C.2       1 RES1   0.0000
     9 C9      25.3951   3.6459  63.3449   C.2       1 RES1   0.0000
    10 O10     23.5491   6.0368  61.4408   O.2       1 RES1   0.0000
    11 H1      27.4681   6.7482  64.3311   H         1 RES1   0.0000
    12 H2      25.7614   6.9208  62.5365   H         1 RES1   0.0000
    13 H3      23.5835   3.1717  61.5230   H         1 RES1   0.0000
    14 H4      26.5266   2.6220  64.8568   H         1 RES1   0.0000
    15 H5      24.8144   2.7654  63.0741   H         1 RES1   0.0000
@<TRIPOS>BOND
     1     1     2    1
     2     1     3    1
     3     1    10    2
     4     3     4    2
     5     3     9    1
     6     4     5    1
     7     5     6    2
     8     6     7    1
     9     6     8    1
    10     8     9    2
    11     5    11    1
    12     4    12    1
    13     2    13    1
    14     8    14    1
    15     9    15    1
@<TRIPOS>SUBSTRUCTURE
     1 RES1        1 GROUP             0 ****  ****    0  
@<TRIPOS>MOLECULE
1GII:A:1PU501
    39    42     1     0     0
SMALL
NO_CHARGES
****
Generated from the CSD

@<TRIPOS>ATOM
     1 C1      26.0698   6.0840  63.0476   C.2       1 RES1   0.0000
     2 C2      26.2448   7.5290  62.6346   C.3       1 RES1   0.0000
     3 C3      24.8607   5.6140  62.4896   C.2       1 RES1   0.0000
     4 C4      24.2267   6.6870  61.7456   C.2       1 RES1   0.0000
     5 C5      27.3108   7.8180  61.5536   C.3       1 RES1   0.0000
     6 C6      26.8668   5.2390  63.8306   C.2       1 RES1   0.0000
     7 N7      25.0327   7.7570  61.8436   N.am      1 RES1   0.0000
     8 C8      24.4367   4.2920  62.6936   C.2       1 RES1   0.0000
     9 C9      26.4338   3.9130  64.0306   C.2       1 RES1   0.0000
    10 N10     28.0708   5.7700  64.3846   N.am      1 RES1   0.0000
    11 C11     25.1607   8.7560  60.7635   C.3       1 RES1   0.0000
    12 C12     26.6918   8.9290  60.6745   C.3       1 RES1   0.0000
    13 O13     23.1927   6.6050  61.1706   O.2       1 RES1   0.0000
    14 C14     25.2367   3.4520  63.4616   C.2       1 RES1   0.0000
    15 C15     28.9498   5.2440  65.2037   C.2       1 RES1   0.0000
    16 N16     30.0339   5.9550  65.4587   N.am      1 RES1   0.0000
    17 O17     28.7648   4.1240  65.6657   O.2       1 RES1   0.0000
    18 C18     30.4629   7.2450  65.0447   C.2       1 RES1   0.0000
    19 C19     31.6779   7.8370  65.4397   C.2       1 RES1   0.0000
    20 N20     29.6369   7.8920  64.2386   N.2       1 RES1   0.0000
    21 C21     31.9869   9.1240  64.9607   C.2       1 RES1   0.0000
    22 C22     29.9039   9.1140  63.7706   C.2       1 RES1   0.0000
    23 C23     31.0899   9.7810  64.1136   C.2       1 RES1   0.0000
    24 H1      27.5081   6.9257  60.9614   H         1 RES1   0.0000
    25 H2      28.2372   8.1623  62.0109   H         1 RES1   0.0000
    26 H3      23.5041   3.9323  62.2613   H         1 RES1   0.0000
    27 H4      27.0364   3.2367  64.6350   H         1 RES1   0.0000
    28 H5      28.2833   6.7191  64.0942   H         1 RES1   0.0000
    29 H6      30.6918   5.4861  66.0731   H         1 RES1   0.0000
    30 H7      24.9290   2.4201  63.6238   H         1 RES1   0.0000
    31 H8      27.0233   8.8209  59.6428   H         1 RES1   0.0000
    32 H9      26.9819   9.9099  61.0482   H         1 RES1   0.0000
    33 H10     24.6705   9.6917  61.0285   H         1 RES1   0.0000
    34 H11     24.7486   8.3828  59.8271   H         1 RES1   0.0000
    35 H12     32.9203   9.6055  65.2487   H         1 RES1   0.0000
    36 H13     29.1880   9.6018  63.1107   H         1 RES1   0.0000
    37 H14     31.3045  10.7782  63.7322   H         1 RES1   0.0000
    38 H15     32.3638   7.3104  66.1016   H         1 RES1   0.0000
    39 H16     26.3206   8.2018  63.4875   H         1 RES1   0.0000
@<TRIPOS>BOND
     1     1     2    1
     2     1     3    2
     3     1     6    1
     4     2     5    1
     5     2     7    1
     6     3     4    1
     7     3     8    1
     8     4     7   am
     9     4    13    2
    10     5    12    1
    11     6     9    2
    12     6    10    1
    13     7    11    1
    14     8    14    2
    15     9    14    1
    16    10    15   am
    17    11    12    1
    18    15    16   am
    19    15    17    2
    20    16    18    1
    21    18    19    2
    22    18    20    1
    23    19    21    1
    24    20    22    2
    25    21    23    2
    26    22    23    1
    27     5    24    1
    28     5    25    1
    29     8    26    1
    30     9    27    1
    31    10    28    1
    32    16    29    1
    33    14    30    1
    34    12    31    1
    35    12    32    1
    36    11    33    1
    37    11    34    1
    38    21    35    1
    39    22    36    1
    40    23    37    1
    41    19    38    1
    42     2    39    1
@<TRIPOS>SUBSTRUCTURE
     1 RES1        1 GROUP             0 ****  ****    0  
@<TRIPOS>MOLECULE
5FP6:A:MFZ1295
    22    23     1     0     0
SMALL
NO_CHARGES
****
Generated from the CSD

@<TRIPOS>ATOM
     1 O1      22.2280   9.8142  60.3819   O.3       1 RES1   0.0000
     2 C2      23.6030  10.1662  60.3189   C.3       1 RES1   0.0000
     3 C3      24.4290   9.3002  61.1599   C.1       1 RES1   0.0000
     4 C4      25.1080   8.5932  61.8489   C.1       1 RES1   0.0000
     5 C5      25.9180   7.7502  62.6679   C.2       1 RES1   0.0000
     6 C6      27.0200   8.2982  63.2769   C.2       1 RES1   0.0000
     7 N7      27.6300   7.3331  63.9979   N.pl3     1 RES1   0.0000
     8 C8      26.9430   6.1511  63.8719   C.2       1 RES1   0.0000
     9 C9      27.1570   4.8931  64.4359   C.2       1 RES1   0.0000
    10 Cl10    28.4960   4.6511  65.5159   Cl        1 RES1   0.0000
    11 C11     26.2950   3.8421  64.1889   C.2       1 RES1   0.0000
    12 C12     25.1990   4.0331  63.3639   C.2       1 RES1   0.0000
    13 C13     24.9560   5.2731  62.7889   C.2       1 RES1   0.0000
    14 Cl14    23.5560   5.4301  61.7739   Cl        1 RES1   0.0000
    15 C15     25.8130   6.3861  63.0229   C.2       1 RES1   0.0000
    16 H1      26.4764   2.8680  64.6408   H         1 RES1   0.0000
    17 H2      24.5222   3.2036  63.1646   H         1 RES1   0.0000
    18 H3      23.7181  11.1958  60.6544   H         1 RES1   0.0000
    19 H4      23.9410  10.0806  59.2872   H         1 RES1   0.0000
    20 H5      21.9082   9.8949  61.3185   H         1 RES1   0.0000
    21 H6      28.4713   7.4623  64.5508   H         1 RES1   0.0000
    22 H7      27.3462   9.3338  63.1928   H         1 RES1   0.0000
@<TRIPOS>BOND
     1     1     2    1
     2     2     3    1
     3     3     4    3
     4     4     5    1
     5     5     6    2
     6     5    15    1
     7     6     7    1
     8     7     8    1
     9     8     9    1
    10     8    15    2
    11     9    10    1
    12     9    11    2
    13    11    12    1
    14    12    13    2
    15    13    14    1
    16    13    15    1
    17    11    16    1
    18    12    17    1
    19     2    18    1
    20     2    19    1
    21     1    20    1
    22     7    21    1
    23     6    22    1
@<TRIPOS>SUBSTRUCTURE
     1 RES1        1 GROUP             0 ****  ****    0  
@<TRIPOS>MOLECULE
1GIJ:A:2PU501
    49    53     1     0     0
SMALL
NO_CHARGES
****
Generated from the CSD

@<TRIPOS>ATOM
     1 C1      26.2643   6.0642  62.6270   C.2       1 RES1   0.0000
     2 C2      26.5663   7.3772  61.8340   C.3       1 RES1   0.0000
     3 C3      24.9763   5.5832  62.1590   C.2       1 RES1   0.0000
     4 C4      26.9753   5.3262  63.6181   C.2       1 RES1   0.0000
     5 N5      25.3583   7.5212  60.9970   N.am      1 RES1   0.0000
     6 C6      26.6433   8.7673  62.4350   C.3       1 RES1   0.0000
     7 C7      24.4142   6.5262  61.1450   C.2       1 RES1   0.0000
     8 C8      24.4132   4.3821  62.6630   C.2       1 RES1   0.0000
     9 C9      26.4003   4.1111  64.1081   C.2       1 RES1   0.0000
    10 N10     28.2393   5.7282  64.1811   N.am      1 RES1   0.0000
    11 C11     25.0453   8.8913  60.6140   C.3       1 RES1   0.0000
    12 C12     26.2053   9.6613  61.2910   C.3       1 RES1   0.0000
    13 O13     23.3132   6.3942  60.5730   O.2       1 RES1   0.0000
    14 C14     25.1503   3.6421  63.6441   C.2       1 RES1   0.0000
    15 C15     29.0553   5.0711  65.0141   C.2       1 RES1   0.0000
    16 N16     30.1843   5.6892  65.3351   N.am      1 RES1   0.0000
    17 O17     28.7663   3.9241  65.4081   O.2       1 RES1   0.0000
    18 C18     30.4703   6.9972  64.9741   C.2       1 RES1   0.0000
    19 C19     31.3913   7.8002  65.5621   C.2       1 RES1   0.0000
    20 N20     29.8423   7.6782  63.9641   N.pl3     1 RES1   0.0000
    21 C21     31.3073   9.0283  64.8741   C.2       1 RES1   0.0000
    22 N22     30.3473   8.9233  63.9041   N.2       1 RES1   0.0000
    23 C23     32.1033  10.2803  65.1631   C.3       1 RES1   0.0000
    24 C24     31.6753  11.5613  64.4161   C.3       1 RES1   0.0000
    25 N25     33.5383  10.2933  65.1041   N.3       1 RES1   0.0000
    26 C26     32.7853  12.5884  64.8371   C.3       1 RES1   0.0000
    27 C27     33.9333  11.7063  65.4231   C.3       1 RES1   0.0000
    28 H1      34.8840  11.9535  64.9530   H         1 RES1   0.0000
    29 H2      34.0131  11.8477  66.4999   H         1 RES1   0.0000
    30 H3      32.4063  13.2772  65.5907   H         1 RES1   0.0000
    31 H4      33.1356  13.1519  63.9736   H         1 RES1   0.0000
    32 H5      31.8812  10.4980  66.2067   H         1 RES1   0.0000
    33 H6      30.6895  11.8936  64.7380   H         1 RES1   0.0000
    34 H7      31.6719  11.4056  63.3383   H         1 RES1   0.0000
    35 H8      27.6596   9.0023  62.7477   H         1 RES1   0.0000
    36 H9      25.9704   8.8632  63.2858   H         1 RES1   0.0000
    37 H10     27.4305   7.2166  61.1911   H         1 RES1   0.0000
    38 H11     23.4438   4.0310  62.3125   H         1 RES1   0.0000
    39 H12     24.0774   9.2038  61.0030   H         1 RES1   0.0000
    40 H13     25.0596   9.0171  59.5324   H         1 RES1   0.0000
    41 H14     33.8586  10.0351  64.1762   H         1 RES1   0.0000
    42 H15     28.5598   6.6504  63.9036   H         1 RES1   0.0000
    43 H16     26.9393   3.5331  64.8573   H         1 RES1   0.0000
    44 H17     27.0239   9.8170  60.5899   H         1 RES1   0.0000
    45 H18     25.8604  10.6238  61.6659   H         1 RES1   0.0000
    46 H19     32.0543   7.5501  66.3891   H         1 RES1   0.0000
    47 H20     30.8758   5.1774  65.8737   H         1 RES1   0.0000
    48 H21     24.7440   2.7106  64.0355   H         1 RES1   0.0000
    49 H22     29.1162   7.3047  63.3611   H         1 RES1   0.0000
@<TRIPOS>BOND
     1     1     2    1
     2     1     3    2
     3     1     4    1
     4     2     5    1
     5     2     6    1
     6     3     7    1
     7     3     8    1
     8     4     9    2
     9     4    10    1
    10     5     7   am
    11     5    11    1
    12     6    12    1
    13     7    13    2
    14     8    14    2
    15     9    14    1
    16    10    15   am
    17    11    12    1
    18    15    16   am
    19    15    17    2
    20    16    18    1
    21    18    19    2
    22    18    20    1
    23    19    21    1
    24    20    22    1
    25    21    22    2
    26    21    23    1
    27    23    24    1
    28    23    25    1
    29    24    26    1
    30    25    27    1
    31    26    27    1
    32    27    28    1
    33    27    29    1
    34    26    30    1
    35    26    31    1
    36    23    32    1
    37    24    33    1
    38    24    34    1
    39     6    35    1
    40     6    36    1
    41     2    37    1
    42     8    38    1
    43    11    39    1
    44    11    40    1
    45    25    41    1
    46    10    42    1
    47     9    43    1
    48    12    44    1
    49    12    45    1
    50    19    46    1
    51    16    47    1
    52    14    48    1
    53    20    49    1
@<TRIPOS>SUBSTRUCTURE
     1 RES1        1 GROUP             0 ****  ****    0  
