@<TRIPOS>MOLECULE
A:LZ11301
    15    16     1     0     1
SMALL
NO_CHARGES
****
Generated from the CSD

@<TRIPOS>ATOM
     1 C1      26.6475   4.4300  64.2625   C.ar      1 LZ11301   0.0000
     2 C2      27.3295   5.6500  64.3745   C.ar      1 LZ11301   0.0000
     3 C3      26.8645   6.7380  63.6395   C.ar      1 LZ11301   0.0000
     4 C4      25.7625   6.6120  62.8126   C.ar      1 LZ11301   0.0000
     5 C5      25.1035   5.4010  62.7056   C.ar      1 LZ11301   0.0000
     6 C6      25.5455   4.3090  63.4255   C.ar      1 LZ11301   0.0000
     7 N       27.3085   3.5470  65.0775   N.pl3     1 LZ11301   0.0000
     8 C9      28.3846   5.4130  65.2895   C.2       1 LZ11301   0.0000
     9 N2      28.3646   4.1370  65.6975   N.2       1 LZ11301   0.0000
    10 H1      25.4121   7.4713  62.2427   H         1 LZ11301   0.0000
    11 H2      24.2361   5.3086  62.0536   H         1 LZ11301   0.0000
    12 H3      27.0427   2.5754  65.2021   H         1 LZ11301   0.0000
    13 H4      29.1074   6.1599  65.6144   H         1 LZ11301   0.0000
    14 H5      27.3736   7.6976  63.7166   H         1 LZ11301   0.0000
    15 H6      25.0306   3.3535  63.3373   H         1 LZ11301   0.0000
@<TRIPOS>BOND
     1     1     2   ar
     2     1     6   ar
     3     1     7    1
     4     2     3   ar
     5     2     8    1
     6     3     4   ar
     7     4     5   ar
     8     5     6   ar
     9     7     9    1
    10     8     9    2
    11     4    10    1
    12     5    11    1
    13     7    12    1
    14     8    13    1
    15     3    14    1
    16     6    15    1
@<TRIPOS>SUBSTRUCTURE
     1 LZ11301     1 GROUP             0 A     LZ1     0  
@<TRIPOS>SET
CCDC_LIGAND STATIC ATOMS
15 1 2 3 4 5 6 7 8 9 \
10 11 12 13 14 15 
@<TRIPOS>MOLECULE
A:04Z499
    43    45     1     0     1
SMALL
NO_CHARGES
****
Generated from the CSD

@<TRIPOS>ATOM
     1 C1      24.5372   8.5163  60.5739   C.ar      1 04Z499   0.0000
     2 N1      28.3125   4.3192  65.4042   N.2       1 04Z499   0.0000
     3 O1      34.4801  10.1083  64.0180   O.2       1 04Z499   0.0000
     4 S1      27.6497   6.4586  64.1123   S.3       1 04Z499   0.0000
     5 C2      23.5453   7.9145  61.4635   C.ar      1 04Z499   0.0000
     6 N2      26.7367   2.7383  64.6433   N.pl3     1 04Z499   0.0000
     7 O2      33.8367  11.2246  66.3602   O.2       1 04Z499   0.0000
     8 S2      33.2761  10.6671  64.9302   S.o2      1 04Z499   0.0000
     9 C3      23.8780   6.7452  62.2352   C.ar      1 04Z499   0.0000
    10 N3      29.7080   6.1075  65.9473   N.pl3     1 04Z499   0.0000
    11 O3      24.9279   3.7817  62.8051   O.2       1 04Z499   0.0000
    12 C4      26.1956   6.7687  61.2358   C.ar      1 04Z499   0.0000
    13 N4      32.5420  11.8009  64.1562   N.pl3     1 04Z499   0.0000
    14 C5      25.8777   7.9308  60.4609   C.ar      1 04Z499   0.0000
    15 O6      22.2607   8.4568  61.5940   O.3       1 04Z499   0.0000
    16 C7      21.8373   9.5395  60.9394   C.3       1 04Z499   0.0000
    17 C10     25.2108   6.1559  62.1334   C.ar      1 04Z499   0.0000
    18 C11     25.5986   4.9495  62.9295   C.2       1 04Z499   0.0000
    19 C12     26.7594   5.0223  63.8725   C.2       1 04Z499   0.0000
    20 C13     27.2479   3.9841  64.6417   C.2       1 04Z499   0.0000
    21 C14     28.6472   5.6038  65.2370   C.2       1 04Z499   0.0000
    22 C15     30.5108   7.1983  65.6700   C.ar      1 04Z499   0.0000
    23 C16     30.3535   8.0691  64.4777   C.ar      1 04Z499   0.0000
    24 C17     31.2180   9.1609  64.2475   C.ar      1 04Z499   0.0000
    25 C18     32.2771   9.4414  65.1916   C.ar      1 04Z499   0.0000
    26 C19     32.4446   8.6044  66.3744   C.ar      1 04Z499   0.0000
    27 C20     31.5780   7.5027  66.6098   C.ar      1 04Z499   0.0000
    28 H1      24.2804   9.4013  59.9937   H         1 04Z499   0.0000
    29 H2      25.9364   2.5173  64.0595   H         1 04Z499   0.0000
    30 H3      27.1518   2.0202  65.2284   H         1 04Z499   0.0000
    31 H4      23.1354   6.2998  62.8955   H         1 04Z499   0.0000
    32 H5      29.9363   5.6064  66.7999   H         1 04Z499   0.0000
    33 H6      27.1896   6.3309  61.1567   H         1 04Z499   0.0000
    34 H7      31.7500  12.2739  64.5795   H         1 04Z499   0.0000
    35 H8      32.8554  12.0671  63.2282   H         1 04Z499   0.0000
    36 H9      26.6199   8.3730  59.7979   H         1 04Z499   0.0000
    37 H10     21.8953   9.3610  59.8667   H         1 04Z499   0.0000
    38 H11     20.8057   9.7511  61.2169   H         1 04Z499   0.0000
    39 H12     22.4652  10.3901  61.2004   H         1 04Z499   0.0000
    40 H13     29.5552   7.8614  63.7668   H         1 04Z499   0.0000
    41 H14     31.0886   9.7870  63.3660   H         1 04Z499   0.0000
    42 H15     33.2408   8.8257  67.0837   H         1 04Z499   0.0000
    43 H16     31.7136   6.8849  67.4962   H         1 04Z499   0.0000
@<TRIPOS>BOND
     1     1     5   ar
     2     1    14   ar
     3     2    20    1
     4     2    21    2
     5     3     8    2
     6     4    19    1
     7     4    21    1
     8     5     9   ar
     9     5    15    1
    10     6    20    1
    11     7     8    2
    12     8    13    1
    13     8    25    1
    14     9    17   ar
    15    10    21    1
    16    10    22    1
    17    11    18    2
    18    12    14   ar
    19    12    17   ar
    20    15    16    1
    21    17    18    1
    22    18    19    1
    23    19    20    2
    24    22    23   ar
    25    22    27   ar
    26    23    24   ar
    27    24    25   ar
    28    25    26   ar
    29    26    27   ar
    30     1    28    1
    31     6    29    1
    32     6    30    1
    33     9    31    1
    34    10    32    1
    35    12    33    1
    36    13    34    1
    37    13    35    1
    38    14    36    1
    39    16    37    1
    40    16    38    1
    41    16    39    1
    42    23    40    1
    43    24    41    1
    44    26    42    1
    45    27    43    1
@<TRIPOS>SUBSTRUCTURE
     1 04Z499      1 GROUP             0 A     04Z     0  
@<TRIPOS>SET
CCDC_LIGAND STATIC ATOMS
43 1 2 3 4 5 6 7 8 9 \
10 11 12 13 14 15 16 17 18 19 \
20 21 22 23 24 25 26 27 28 29 \
30 31 32 33 34 35 36 37 38 39 \
40 41 42 43 
@<TRIPOS>MOLECULE
A:NW1401
    35    36     1     0     1
SMALL
NO_CHARGES
****
Generated from the CSD

@<TRIPOS>ATOM
     1 N1      28.8998   6.5157  65.1527   N.ar      1 NW1401   0.0000
     2 C6      27.9625   6.4270  64.1718   C.ar      1 NW1401   0.0000
     3 O6      27.6691   7.5915  63.4593   O.3       1 NW1401   0.0000
     4 C1      28.5934   8.6914  63.6795   C.3       1 NW1401   0.0000
     5 C3      28.2887   9.7032  62.5724   C.3       1 NW1401   0.0000
     6 C11     26.7771   9.8696  62.3166   C.3       1 NW1401   0.0000
     7 C10     26.5658  10.8254  61.1050   C.3       1 NW1401   0.0000
     8 C9      27.2254  12.2077  61.4368   C.3       1 NW1401   0.0000
     9 C8      28.7577  11.9705  61.5413   C.3       1 NW1401   0.0000
    10 C7      28.9864  11.0730  62.8021   C.3       1 NW1401   0.0000
    11 C5      27.2855   5.1322  63.8564   C.ar      1 NW1401   0.0000
    12 N7      26.3311   5.1816  62.7652   N.2       1 NW1401   0.0000
    13 O8      25.7304   4.1349  62.4718   O.2       1 NW1401   0.0000
    14 C4      27.6610   4.0721  64.5733   C.ar      1 NW1401   0.0000
    15 N9      27.1592   2.8876  64.3780   N.pl3     1 NW1401   0.0000
    16 N3      28.6708   4.2965  65.6175   N.ar      1 NW1401   0.0000
    17 C2      29.2574   5.3830  65.8792   C.ar      1 NW1401   0.0000
    18 N2      30.1779   5.5355  66.7973   N.pl3     1 NW1401   0.0000
    19 H1      30.4747   4.7413  67.3552   H         1 NW1401   0.0000
    20 H2      30.5948   6.4480  66.9513   H         1 NW1401   0.0000
    21 H3      29.6232   8.3448  63.6065   H         1 NW1401   0.0000
    22 H4      28.4291   9.1373  64.6594   H         1 NW1401   0.0000
    23 H5      28.7117   9.2929  61.6566   H         1 NW1401   0.0000
    24 H6      26.3022  10.2919  63.2009   H         1 NW1401   0.0000
    25 H7      26.3358   8.8988  62.0961   H         1 NW1401   0.0000
    26 H8      25.5002  10.9610  60.9264   H         1 NW1401   0.0000
    27 H9      27.0316  10.4005  60.2171   H         1 NW1401   0.0000
    28 H10     26.8410  12.5875  62.3823   H         1 NW1401   0.0000
    29 H11     27.0115  12.9233  60.6444   H         1 NW1401   0.0000
    30 H12     29.2778  12.9202  61.6568   H         1 NW1401   0.0000
    31 H13     29.1211  11.4638  60.6485   H         1 NW1401   0.0000
    32 H14     30.0539  10.9196  62.9538   H         1 NW1401   0.0000
    33 H15     28.5612  11.5583  63.6793   H         1 NW1401   0.0000
    34 H16     27.4706   2.1049  64.9442   H         1 NW1401   0.0000
    35 H17     26.4564   2.7463  63.6595   H         1 NW1401   0.0000
@<TRIPOS>BOND
     1     1     2   ar
     2     1    17   ar
     3     2     3    1
     4     2    11   ar
     5     3     4    1
     6     4     5    1
     7     5     6    1
     8     5    10    1
     9     6     7    1
    10     7     8    1
    11     8     9    1
    12     9    10    1
    13    11    12    1
    14    11    14   ar
    15    12    13    2
    16    14    15    1
    17    14    16   ar
    18    16    17   ar
    19    17    18    1
    20    18    19    1
    21    18    20    1
    22     4    21    1
    23     4    22    1
    24     5    23    1
    25     6    24    1
    26     6    25    1
    27     7    26    1
    28     7    27    1
    29     8    28    1
    30     8    29    1
    31     9    30    1
    32     9    31    1
    33    10    32    1
    34    10    33    1
    35    15    34    1
    36    15    35    1
@<TRIPOS>SUBSTRUCTURE
     1 NW1401      1 GROUP             0 A     NW1     0  
@<TRIPOS>SET
CCDC_LIGAND STATIC ATOMS
35 1 2 3 4 5 6 7 8 9 \
10 11 12 13 14 15 16 17 18 19 \
20 21 22 23 24 25 26 27 28 29 \
30 31 32 33 34 35 
@<TRIPOS>MOLECULE
A:D6I1300
    52    55     1     0     1
SMALL
NO_CHARGES
****
Generated from the CSD

@<TRIPOS>ATOM
     1 C28     25.1645   8.5357  60.3227   C.ar      1 D6I1300   0.0000
     2 C27     26.3690   8.5002  60.9890   C.ar      1 D6I1300   0.0000
     3 C29     24.2196   7.5381  60.5017   C.ar      1 D6I1300   0.0000
     4 C26     26.6678   7.4710  61.8691   C.ar      1 D6I1300   0.0000
     5 C9      31.8070   8.6667  66.1197   C.ar      1 D6I1300   0.0000
     6 C10     31.2911   7.4002  66.2883   C.ar      1 D6I1300   0.0000
     7 C16     27.6670   5.7086  64.2611   C.ar      1 D6I1300   0.0000
     8 C13     30.1286   9.0676  64.4841   C.ar      1 D6I1300   0.0000
     9 C19     27.5950   3.1029  64.8060   C.ar      1 D6I1300   0.0000
    10 C22     24.4708   4.7230  62.5987   C.2       1 D6I1300   0.0000
    11 C24     24.4963   6.4950  61.3840   C.ar      1 D6I1300   0.0000
    12 C25     25.7189   6.4735  62.0482   C.ar      1 D6I1300   0.0000
    13 C8      31.2078   9.5200  65.2192   C.ar      1 D6I1300   0.0000
    14 C17     26.7238   4.8482  63.6972   C.ar      1 D6I1300   0.0000
    15 C11     30.1833   7.0240  65.5324   C.ar      1 D6I1300   0.0000
    16 C15     28.6143   5.0939  65.0837   C.ar      1 D6I1300   0.0000
    17 C1      32.0267  15.6363  66.5579   C.3       1 D6I1300   0.0000
    18 C3      30.7429  14.2379  67.9917   C.3       1 D6I1300   0.0000
    19 C5      31.4860  13.1033  64.5684   C.3       1 D6I1300   0.0000
    20 C4      31.7857  13.3070  66.0408   C.3       1 D6I1300   0.0000
    21 C6      30.9956  11.7197  64.2398   C.3       1 D6I1300   0.0000
    22 N12     29.6119   7.8401  64.6387   N.ar      1 D6I1300   0.0000
    23 N18     26.6434   3.5477  63.9834   N.ar      1 D6I1300   0.0000
    24 N20     28.5849   3.7890  65.3736   N.ar      1 D6I1300   0.0000
    25 N23     23.7336   5.3902  61.7430   N.2       1 D6I1300   0.0000
    26 N21     25.6795   5.3346  62.8581   N.pl3     1 D6I1300   0.0000
    27 N14     29.6436   5.7657  65.7181   N.pl3     1 D6I1300   0.0000
    28 N2      31.1410  14.4844  66.6146   N.3       1 D6I1300   0.0000
    29 O7      31.7147  10.7856  65.0526   O.3       1 D6I1300   0.0000
    30 H1      24.9512   9.3605  59.6444   H         1 D6I1300   0.0000
    31 H2      27.0978   9.2921  60.8223   H         1 D6I1300   0.0000
    32 H3      23.2747   7.5687  59.9612   H         1 D6I1300   0.0000
    33 H4      27.6167   7.4459  62.4028   H         1 D6I1300   0.0000
    34 H5      32.6766   8.9888  66.6905   H         1 D6I1300   0.0000
    35 H6      31.7405   6.7073  66.9982   H         1 D6I1300   0.0000
    36 H7      27.6646   6.7813  64.0736   H         1 D6I1300   0.0000
    37 H8      29.6797   9.7349  63.7498   H         1 D6I1300   0.0000
    38 H9      27.5571   2.0410  65.0441   H         1 D6I1300   0.0000
    39 H10     24.1609   3.7846  63.0563   H         1 D6I1300   0.0000
    40 H11     32.9130  15.4426  67.1602   H         1 D6I1300   0.0000
    41 H12     32.3218  15.8167  65.5253   H         1 D6I1300   0.0000
    42 H13     31.5085  16.5120  66.9457   H         1 D6I1300   0.0000
    43 H14     30.2231  15.1119  68.3813   H         1 D6I1300   0.0000
    44 H15     30.0800  13.3747  68.0291   H         1 D6I1300   0.0000
    45 H16     31.6277  14.0425  68.5959   H         1 D6I1300   0.0000
    46 H17     32.3978  13.2888  64.0026   H         1 D6I1300   0.0000
    47 H18     30.7217  13.8194  64.2702   H         1 D6I1300   0.0000
    48 H19     32.8629  13.4123  66.1608   H         1 D6I1300   0.0000
    49 H20     31.4439  12.4282  66.5857   H         1 D6I1300   0.0000
    50 H21     31.1736  11.5058  63.1870   H         1 D6I1300   0.0000
    51 H22     29.9295  11.6469  64.4498   H         1 D6I1300   0.0000
    52 H23     30.0861   5.2336  66.4606   H         1 D6I1300   0.0000
@<TRIPOS>BOND
     1     1     2   ar
     2     1     3   ar
     3     2     4   ar
     4     3    11   ar
     5     4    12   ar
     6     5     6   ar
     7     5    13   ar
     8     6    15   ar
     9     7    14   ar
    10     7    16   ar
    11     8    13   ar
    12     8    22   ar
    13     9    23   ar
    14     9    24   ar
    15    10    25    2
    16    10    26    1
    17    11    12   ar
    18    11    25    1
    19    12    26    1
    20    13    29    1
    21    14    23   ar
    22    14    26    1
    23    15    22   ar
    24    15    27    1
    25    16    24   ar
    26    16    27    1
    27    17    28    1
    28    18    28    1
    29    19    20    1
    30    19    21    1
    31    20    28    1
    32    21    29    1
    33     1    30    1
    34     2    31    1
    35     3    32    1
    36     4    33    1
    37     5    34    1
    38     6    35    1
    39     7    36    1
    40     8    37    1
    41     9    38    1
    42    10    39    1
    43    17    40    1
    44    17    41    1
    45    17    42    1
    46    18    43    1
    47    18    44    1
    48    18    45    1
    49    19    46    1
    50    19    47    1
    51    20    48    1
    52    20    49    1
    53    21    50    1
    54    21    51    1
    55    27    52    1
@<TRIPOS>SUBSTRUCTURE
     1 D6I1300     1 GROUP             0 A     D6I     0  
@<TRIPOS>SET
CCDC_LIGAND STATIC ATOMS
52 1 2 3 4 5 6 7 8 9 \
10 11 12 13 14 15 16 17 18 19 \
20 21 22 23 24 25 26 27 28 29 \
30 31 32 33 34 35 36 37 38 39 \
40 41 42 43 44 45 46 47 48 49 \
50 51 52 
@<TRIPOS>MOLECULE
A:PY8299
    36    38     1     0     1
SMALL
NO_CHARGES
****
Generated from the CSD

@<TRIPOS>ATOM
     1 BR1     25.6051   4.2058  63.4973   Br        1 PY8299   0.0000
     2 C1      27.1560   4.7206  64.4744   C.ar      1 PY8299   0.0000
     3 C2      27.8852   3.7788  65.1881   C.ar      1 PY8299   0.0000
     4 N3      28.9625   4.1379  65.8603   N.ar      1 PY8299   0.0000
     5 C4      29.3770   5.4087  65.8754   C.ar      1 PY8299   0.0000
     6 N5      28.6896   6.3437  65.2022   N.ar      1 PY8299   0.0000
     7 C6      27.5921   6.0400  64.4889   C.ar      1 PY8299   0.0000
     8 N7      26.9270   6.9956  63.8328   N.pl3     1 PY8299   0.0000
     9 C8      27.5806   7.9126  62.8786   C.3       1 PY8299   0.0000
    10 C9      28.2042   9.1166  63.5978   C.3       1 PY8299   0.0000
    11 C10     29.7021   9.1773  63.2955   C.3       1 PY8299   0.0000
    12 N13     30.2796  10.3951  63.8912   N.pl3     1 PY8299   0.0000
    13 S14     31.7828  10.2176  64.5797   S.o2      1 PY8299   0.0000
    14 O14     32.1979  11.5577  65.1330   O.2       1 PY8299   0.0000
    15 O15     32.7884   9.7345  63.5847   O.2       1 PY8299   0.0000
    16 C15     31.7474   9.0604  65.8606   C.ar      1 PY8299   0.0000
    17 C20     31.1060   7.8401  65.6653   C.ar      1 PY8299   0.0000
    18 C16     32.3759   9.3605  67.0664   C.ar      1 PY8299   0.0000
    19 C17     32.3569   8.4391  68.1048   C.ar      1 PY8299   0.0000
    20 C18     31.7137   7.2179  67.9075   C.ar      1 PY8299   0.0000
    21 C19     31.0694   6.9063  66.7005   C.ar      1 PY8299   0.0000
    22 N21     30.4728   5.7093  66.5717   N.pl3     1 PY8299   0.0000
    23 H1      32.8358   8.6662  69.0561   H         1 PY8299   0.0000
    24 H2      30.6354   7.6160  64.7092   H         1 PY8299   0.0000
    25 H3      32.8816  10.3164  67.1946   H         1 PY8299   0.0000
    26 H4      31.7112   6.4850  68.7130   H         1 PY8299   0.0000
    27 H5      30.9109   4.9386  67.0660   H         1 PY8299   0.0000
    28 H6      25.9304   7.0950  63.9977   H         1 PY8299   0.0000
    29 H7      27.5661   2.7376  65.1931   H         1 PY8299   0.0000
    30 H8      28.0553   9.0139  64.6717   H         1 PY8299   0.0000
    31 H9      27.7274  10.0323  63.2511   H         1 PY8299   0.0000
    32 H10     29.7913  11.2849  63.8819   H         1 PY8299   0.0000
    33 H11     29.8535   9.1949  62.2172   H         1 PY8299   0.0000
    34 H12     30.1923   8.3008  63.7167   H         1 PY8299   0.0000
    35 H13     26.8388   8.2705  62.1662   H         1 PY8299   0.0000
    36 H14     28.3631   7.3727  62.3475   H         1 PY8299   0.0000
@<TRIPOS>BOND
     1     1     2    1
     2     2     3   ar
     3     2     7   ar
     4     3     4   ar
     5     4     5   ar
     6     5     6   ar
     7     5    22    1
     8     6     7   ar
     9     7     8    1
    10     8     9    1
    11     9    10    1
    12    10    11    1
    13    11    12    1
    14    12    13    1
    15    13    14    2
    16    13    15    2
    17    13    16    1
    18    16    17   ar
    19    16    18   ar
    20    17    21   ar
    21    18    19   ar
    22    19    20   ar
    23    20    21   ar
    24    21    22    1
    25    19    23    1
    26    17    24    1
    27    18    25    1
    28    20    26    1
    29    22    27    1
    30     8    28    1
    31     3    29    1
    32    10    30    1
    33    10    31    1
    34    12    32    1
    35    11    33    1
    36    11    34    1
    37     9    35    1
    38     9    36    1
@<TRIPOS>SUBSTRUCTURE
     1 PY8299      1 GROUP             0 A     PY8     0  
@<TRIPOS>SET
CCDC_LIGAND STATIC ATOMS
36 1 2 3 4 5 6 7 8 9 \
10 11 12 13 14 15 16 17 18 19 \
20 21 22 23 24 25 26 27 28 29 \
30 31 32 33 34 35 36 
@<TRIPOS>MOLECULE
A:09K301
    37    39     1     0     1
SMALL
NO_CHARGES
****
Generated from the CSD

@<TRIPOS>ATOM
     1 C1      30.8946  11.3475  70.5024   C.3       1 09K301   0.0000
     2 F1      30.9186  12.5177  71.1432   F         1 09K301   0.0000
     3 N1      29.7780   6.1276  65.1977   N.am      1 09K301   0.0000
     4 O1      31.6120  11.4461  69.3244   O.3       1 09K301   0.0000
     5 C2      31.4552  10.5445  68.2739   C.ar      1 09K301   0.0000
     6 F2      31.3797  10.4276  71.3176   F         1 09K301   0.0000
     7 N2      28.5337   4.1082  65.4850   N.2       1 09K301   0.0000
     8 O2      29.2874   7.9708  63.9281   O.2       1 09K301   0.0000
     9 C3      31.2155  11.0649  66.9849   C.ar      1 09K301   0.0000
    10 F3      29.6370  11.0178  70.2492   F         1 09K301   0.0000
    11 N3      27.3820   3.6151  65.0465   N.pl3     1 09K301   0.0000
    12 C4      31.2139  10.1851  65.8878   C.ar      1 09K301   0.0000
    13 C5      31.4359   8.7931  66.1028   C.ar      1 09K301   0.0000
    14 C6      31.6376   8.3126  67.3894   C.ar      1 09K301   0.0000
    15 C7      31.6552   9.1626  68.5137   C.ar      1 09K301   0.0000
    16 C8      31.4815   7.8829  64.9542   C.3       1 09K301   0.0000
    17 C9      30.0685   7.3565  64.6290   C.2       1 09K301   0.0000
    18 C10     28.6177   5.4016  65.0200   C.2       1 09K301   0.0000
    19 C11     26.6637   4.5412  64.2883   C.2       1 09K301   0.0000
    20 C12     27.4292   5.7289  64.2528   C.2       1 09K301   0.0000
    21 C13     25.3674   4.1719  63.7133   C.3       1 09K301   0.0000
    22 C14     24.3299   5.2387  63.4898   C.3       1 09K301   0.0000
    23 C15     24.9833   4.5551  62.3077   C.3       1 09K301   0.0000
    24 H1      30.4854   5.7224  65.8024   H         1 09K301   0.0000
    25 H2      24.5611   6.2791  63.7137   H         1 09K301   0.0000
    26 H3      23.2851   5.0404  63.7247   H         1 09K301   0.0000
    27 H4      31.0348  12.1292  66.8418   H         1 09K301   0.0000
    28 H5      27.0604   2.6722  65.2404   H         1 09K301   0.0000
    29 H6      31.0442  10.5642  64.8812   H         1 09K301   0.0000
    30 H7      31.7872   7.2438  67.5350   H         1 09K301   0.0000
    31 H8      31.8148   8.7754  69.5190   H         1 09K301   0.0000
    32 H9      32.1327   7.0420  65.1883   H         1 09K301   0.0000
    33 H10     31.8738   8.4160  64.0894   H         1 09K301   0.0000
    34 H11     27.1845   6.6706  63.7637   H         1 09K301   0.0000
    35 H12     24.9736   3.2141  64.0502   H         1 09K301   0.0000
    36 H13     24.4094   3.8643  61.6919   H         1 09K301   0.0000
    37 H14     25.6854   5.1030  61.6809   H         1 09K301   0.0000
@<TRIPOS>BOND
     1     1     2    1
     2     1     4    1
     3     1     6    1
     4     1    10    1
     5     3    17   am
     6     3    18    1
     7     4     5    1
     8     5     9   ar
     9     5    15   ar
    10     7    11    1
    11     7    18    2
    12     8    17    2
    13     9    12   ar
    14    11    19    1
    15    12    13   ar
    16    13    14   ar
    17    13    16    1
    18    14    15   ar
    19    16    17    1
    20    18    20    1
    21    19    20    2
    22    19    21    1
    23    21    22    1
    24    21    23    1
    25    22    23    1
    26     3    24    1
    27    22    25    1
    28    22    26    1
    29     9    27    1
    30    11    28    1
    31    12    29    1
    32    14    30    1
    33    15    31    1
    34    16    32    1
    35    16    33    1
    36    20    34    1
    37    21    35    1
    38    23    36    1
    39    23    37    1
@<TRIPOS>SUBSTRUCTURE
     1 09K301      1 GROUP             0 A     09K     0  
@<TRIPOS>SET
CCDC_LIGAND STATIC ATOMS
37 1 2 3 4 5 6 7 8 9 \
10 11 12 13 14 15 16 17 18 19 \
20 21 22 23 24 25 26 27 28 29 \
30 31 32 33 34 35 36 37 
@<TRIPOS>MOLECULE
A:0BX299
    37    39     1     0     1
SMALL
NO_CHARGES
****
Generated from the CSD

@<TRIPOS>ATOM
     1 C06     32.1855   9.0863  66.5325   C.ar      1 0BX299   0.0000
     2 C11     32.9214  10.3751  66.6935   C.2       1 0BX299   0.0000
     3 C05     32.3715   8.1350  67.5153   C.ar      1 0BX299   0.0000
     4 C10     31.7327   6.9147  67.4529   C.ar      1 0BX299   0.0000
     5 C09     30.8855   6.6364  66.3954   C.ar      1 0BX299   0.0000
     6 C08     30.6846   7.5869  65.3891   C.ar      1 0BX299   0.0000
     7 C07     31.3402   8.8225  65.4541   C.ar      1 0BX299   0.0000
     8 N01     30.2743   5.3429  66.4297   N.pl3     1 0BX299   0.0000
     9 C12     29.1867   4.9169  65.6089   C.ar      1 0BX299   0.0000
    10 N03     28.8520   3.6221  65.5974   N.ar      1 0BX299   0.0000
    11 C15     27.8375   3.1717  64.8384   C.ar      1 0BX299   0.0000
    12 C14     27.1480   4.0918  64.0456   C.ar      1 0BX299   0.0000
    13 C13     27.5150   5.4400  64.0749   C.ar      1 0BX299   0.0000
    14 N02     28.5309   5.8127  64.8704   N.ar      1 0BX299   0.0000
    15 N04     26.8733   6.4513  63.2850   N.pl3     1 0BX299   0.0000
    16 C16     25.6900   6.2633  62.5024   C.ar      1 0BX299   0.0000
    17 C17     24.5632   5.6690  63.0563   C.ar      1 0BX299   0.0000
    18 C18     23.4022   5.4898  62.3131   C.ar      1 0BX299   0.0000
    19 C19     23.3525   5.9359  60.9971   C.ar      1 0BX299   0.0000
    20 C20     24.4783   6.5509  60.4557   C.ar      1 0BX299   0.0000
    21 C21     25.6483   6.7185  61.1914   C.ar      1 0BX299   0.0000
    22 O22     33.9174  10.4143  67.4785   O.3       1 0BX299   0.0000
    23 O23     32.5608  11.4139  66.0744   O.2       1 0BX299   0.0000
    24 H1      33.0330   8.3516  68.3528   H         1 0BX299   0.0000
    25 H2      31.8944   6.1726  68.2334   H         1 0BX299   0.0000
    26 H3      30.0190   7.3662  64.5559   H         1 0BX299   0.0000
    27 H4      31.1923   9.5675  64.6737   H         1 0BX299   0.0000
    28 H5      30.6455   4.6713  67.0940   H         1 0BX299   0.0000
    29 H6      27.5611   2.1184  64.8418   H         1 0BX299   0.0000
    30 H7      26.3293   3.7607  63.4085   H         1 0BX299   0.0000
    31 H8      27.2929   7.3755  63.2809   H         1 0BX299   0.0000
    32 H9      24.5898   5.3370  64.0931   H         1 0BX299   0.0000
    33 H10     22.5363   5.0027  62.7591   H         1 0BX299   0.0000
    34 H11     22.4502   5.8067  60.4012   H         1 0BX299   0.0000
    35 H12     24.4426   6.9108  59.4285   H         1 0BX299   0.0000
    36 H13     26.5177   7.1993  60.7453   H         1 0BX299   0.0000
    37 H14     34.6061   9.7680  67.1719   H         1 0BX299   0.0000
@<TRIPOS>BOND
     1     1     2    1
     2     1     3   ar
     3     1     7   ar
     4     2    22    1
     5     2    23    2
     6     3     4   ar
     7     4     5   ar
     8     5     6   ar
     9     5     8    1
    10     6     7   ar
    11     8     9    1
    12     9    10   ar
    13     9    14   ar
    14    10    11   ar
    15    11    12   ar
    16    12    13   ar
    17    13    14   ar
    18    13    15    1
    19    15    16    1
    20    16    17   ar
    21    16    21   ar
    22    17    18   ar
    23    18    19   ar
    24    19    20   ar
    25    20    21   ar
    26     3    24    1
    27     4    25    1
    28     6    26    1
    29     7    27    1
    30     8    28    1
    31    11    29    1
    32    12    30    1
    33    15    31    1
    34    17    32    1
    35    18    33    1
    36    19    34    1
    37    20    35    1
    38    21    36    1
    39    22    37    1
@<TRIPOS>SUBSTRUCTURE
     1 0BX299      1 GROUP             0 A     0BX     0  
@<TRIPOS>SET
CCDC_LIGAND STATIC ATOMS
37 1 2 3 4 5 6 7 8 9 \
10 11 12 13 14 15 16 17 18 19 \
20 21 22 23 24 25 26 27 28 29 \
30 31 32 33 34 35 36 37 
@<TRIPOS>MOLECULE
A:CL299
     2     1     1     0     1
SMALL
NO_CHARGES
****
Generated from the CSD

@<TRIPOS>ATOM
     1 CL      35.8316  20.1783  29.6822   Cl        1 CL299   0.0000
     2 H1      37.1056  20.1783  29.6822   H         1 CL299   0.0000
@<TRIPOS>BOND
     1     1     2    1
@<TRIPOS>SUBSTRUCTURE
     1 CL299       1 GROUP             0 A     CL      0  
@<TRIPOS>SET
CCDC_LIGAND STATIC ATOMS
2 1 2 
@<TRIPOS>MOLECULE
A:AEQ301
    35    36     1     0     1
SMALL
NO_CHARGES
****
Generated from the CSD

@<TRIPOS>ATOM
     1 C6      25.7289   6.4111  61.8068   C.ar      1 AEQ301   0.0000
     2 C1      23.6488   5.5994  63.8328   C.3       1 AEQ301   0.0000
     3 C5      25.5794   8.7807  60.8003   C.3       1 AEQ301   0.0000
     4 C4      25.0580   7.9528  59.6117   C.3       1 AEQ301   0.0000
     5 C3      23.9486   7.0165  60.1061   C.3       1 AEQ301   0.0000
     6 C2      22.7923   4.3820  64.2983   C.3       1 AEQ301   0.0000
     7 C7      26.3550   7.7419  61.5913   C.ar      1 AEQ301   0.0000
     8 C9      28.3171   6.9193  62.7465   C.ar      1 AEQ301   0.0000
     9 O       22.2641   5.7247  61.9343   O.2       1 AEQ301   0.0000
    10 C8      27.6521   7.9729  62.0598   C.ar      1 AEQ301   0.0000
    11 C10     29.7110   7.1573  63.2023   C.2       1 AEQ301   0.0000
    12 C11     31.7752   8.1605  63.2206   C.3       1 AEQ301   0.0000
    13 C13     26.4351   5.4189  62.4886   C.ar      1 AEQ301   0.0000
    14 C12     27.7320   5.6212  62.9547   C.ar      1 AEQ301   0.0000
    15 O2      30.3891   6.2121  63.6407   O.2       1 AEQ301   0.0000
    16 O1      30.3404   8.4543  63.0652   O.3       1 AEQ301   0.0000
    17 N       24.3674   6.3501  61.4008   N.am      1 AEQ301   0.0000
    18 C       23.4167   5.9008  62.3248   C.2       1 AEQ301   0.0000
    19 H1      24.7025   5.3755  63.9930   H         1 AEQ301   0.0000
    20 H2      23.3708   6.4748  64.4178   H         1 AEQ301   0.0000
    21 H3      24.7590   9.1928  61.3859   H         1 AEQ301   0.0000
    22 H4      26.2282   9.5888  60.4655   H         1 AEQ301   0.0000
    23 H5      25.8721   7.3645  59.1910   H         1 AEQ301   0.0000
    24 H6      24.6600   8.6198  58.8484   H         1 AEQ301   0.0000
    25 H7      23.7595   6.2531  59.3529   H         1 AEQ301   0.0000
    26 H8      23.0400   7.5926  60.2752   H         1 AEQ301   0.0000
    27 H9      23.0684   3.5015  63.7199   H         1 AEQ301   0.0000
    28 H10     22.9738   4.1934  65.3554   H         1 AEQ301   0.0000
    29 H11     21.7367   4.6009  64.1447   H         1 AEQ301   0.0000
    30 H12     28.1402   8.9338  61.9032   H         1 AEQ301   0.0000
    31 H13     32.0892   7.4641  62.4445   H         1 AEQ301   0.0000
    32 H14     32.3463   9.0836  63.1328   H         1 AEQ301   0.0000
    33 H15     31.9509   7.7166  64.1994   H         1 AEQ301   0.0000
    34 H16     25.9570   4.4559  62.6616   H         1 AEQ301   0.0000
    35 H17     28.2821   4.8273  63.4575   H         1 AEQ301   0.0000
@<TRIPOS>BOND
     1     1     7   ar
     2     1    13   ar
     3     1    17    1
     4     2     6    1
     5     2    18    1
     6     3     4    1
     7     3     7    1
     8     4     5    1
     9     5    17    1
    10     7    10   ar
    11     8    10   ar
    12     8    11    1
    13     8    14   ar
    14     9    18    2
    15    11    15    2
    16    11    16    1
    17    12    16    1
    18    13    14   ar
    19    17    18   am
    20     2    19    1
    21     2    20    1
    22     3    21    1
    23     3    22    1
    24     4    23    1
    25     4    24    1
    26     5    25    1
    27     5    26    1
    28     6    27    1
    29     6    28    1
    30     6    29    1
    31    10    30    1
    32    12    31    1
    33    12    32    1
    34    12    33    1
    35    13    34    1
    36    14    35    1
@<TRIPOS>SUBSTRUCTURE
     1 AEQ301      1 GROUP             0 A     AEQ     0  
@<TRIPOS>SET
CCDC_LIGAND STATIC ATOMS
35 1 2 3 4 5 6 7 8 9 \
10 11 12 13 14 15 16 17 18 19 \
20 21 22 23 24 25 26 27 28 29 \
30 31 32 33 34 35 
@<TRIPOS>MOLECULE
A:N761298
    50    53     1     0     1
SMALL
NO_CHARGES
****
Generated from the CSD

@<TRIPOS>ATOM
     1 C2      28.4364   7.0963  64.5185   C.ar      1 N761298   0.0000
     2 C8      25.2607   4.1624  63.4899   C.2       1 N761298   0.0000
     3 C10     26.2487   9.7524  62.3492   C.3       1 N761298   0.0000
     4 C11     25.4924  10.3809  61.1972   C.3       1 N761298   0.0000
     5 C12     25.8394  11.8676  61.1577   C.3       1 N761298   0.0000
     6 C13     25.1258  12.5293  59.9775   C.3       1 N761298   0.0000
     7 C14     25.4731  11.8471  58.6575   C.3       1 N761298   0.0000
     8 C15     25.2168  10.3390  58.6928   C.3       1 N761298   0.0000
     9 C16     25.9017   9.6882  59.8907   C.3       1 N761298   0.0000
    10 C19     31.4765  11.1459  64.4511   C.ar      1 N761298   0.0000
    11 C20     31.5192  10.5377  65.7029   C.ar      1 N761298   0.0000
    12 N2      29.5895   7.5179  65.0798   N.pl3     1 N761298   0.0000
    13 C21     30.8767   9.3142  65.8848   C.ar      1 N761298   0.0000
    14 C22     30.1892   8.7077  64.8356   C.ar      1 N761298   0.0000
    15 N26     33.8153  11.5090  66.5043   N.pl3     1 N761298   0.0000
    16 N1      27.6692   7.9450  63.7954   N.ar      1 N761298   0.0000
    17 C6      26.5104   7.5491  63.2139   C.ar      1 N761298   0.0000
    18 O6      25.7657   8.4229  62.4978   O.3       1 N761298   0.0000
    19 C5      26.0638   6.1578  63.3715   C.ar      1 N761298   0.0000
    20 N7      24.9873   5.4071  62.9416   N.2       1 N761298   0.0000
    21 N9      26.4440   4.0593  64.2299   N.pl3     1 N761298   0.0000
    22 C4      26.9358   5.3319  64.1517   C.ar      1 N761298   0.0000
    23 N3      28.0807   5.8049  64.6893   N.ar      1 N761298   0.0000
    24 C17     30.1618   9.3122  63.5790   C.ar      1 N761298   0.0000
    25 C18     30.8045  10.5333  63.3892   C.ar      1 N761298   0.0000
    26 S23     32.2980  11.2462  66.9293   S.o2      1 N761298   0.0000
    27 O24     32.2767  10.4145  68.0909   O.2       1 N761298   0.0000
    28 O25     31.6427  12.4910  67.2005   O.2       1 N761298   0.0000
    29 H1      26.5271  12.0174  58.4430   H         1 N761298   0.0000
    30 H2      24.8662  12.2862  57.8671   H         1 N761298   0.0000
    31 H3      29.6412   8.8325  62.7515   H         1 N761298   0.0000
    32 H4      31.9697  12.1047  64.2982   H         1 N761298   0.0000
    33 H5      26.0719  10.3173  63.2633   H         1 N761298   0.0000
    34 H6      27.3156   9.7390  62.1313   H         1 N761298   0.0000
    35 H7      30.9127   8.8267  66.8579   H         1 N761298   0.0000
    36 H8      34.4559  11.9502  67.1565   H         1 N761298   0.0000
    37 H9      34.1389  11.2349  65.5821   H         1 N761298   0.0000
    38 H10     25.4253  13.5749  59.9246   H         1 N761298   0.0000
    39 H11     24.0501  12.4674  60.1351   H         1 N761298   0.0000
    40 H12     30.0438   6.8929  65.7379   H         1 N761298   0.0000
    41 H13     25.6152   8.6386  59.9385   H         1 N761298   0.0000
    42 H14     26.9812   9.7647  59.7694   H         1 N761298   0.0000
    43 H15     26.8351   3.2502  64.7017   H         1 N761298   0.0000
    44 H16     24.4216  10.2601  61.3544   H         1 N761298   0.0000
    45 H17     25.6025   9.8921  57.7777   H         1 N761298   0.0000
    46 H18     24.1442  10.1629  58.7586   H         1 N761298   0.0000
    47 H19     24.5924   3.3137  63.3522   H         1 N761298   0.0000
    48 H20     30.7835  11.0119  62.4113   H         1 N761298   0.0000
    49 H21     26.9158  11.9856  61.0429   H         1 N761298   0.0000
    50 H22     25.5194  12.3393  62.0856   H         1 N761298   0.0000
@<TRIPOS>BOND
     1     1    12    1
     2     1    16   ar
     3     1    23   ar
     4     2    20    2
     5     2    21    1
     6     3     4    1
     7     3    18    1
     8     4     5    1
     9     4     9    1
    10     5     6    1
    11     6     7    1
    12     7     8    1
    13     8     9    1
    14    10    11   ar
    15    10    25   ar
    16    11    13   ar
    17    11    26    1
    18    12    14    1
    19    13    14   ar
    20    14    24   ar
    21    15    26    1
    22    16    17   ar
    23    17    18    1
    24    17    19   ar
    25    19    20    1
    26    19    22   ar
    27    21    22    1
    28    22    23   ar
    29    24    25   ar
    30    26    27    2
    31    26    28    2
    32     7    29    1
    33     7    30    1
    34    24    31    1
    35    10    32    1
    36     3    33    1
    37     3    34    1
    38    13    35    1
    39    15    36    1
    40    15    37    1
    41     6    38    1
    42     6    39    1
    43    12    40    1
    44     9    41    1
    45     9    42    1
    46    21    43    1
    47     4    44    1
    48     8    45    1
    49     8    46    1
    50     2    47    1
    51    25    48    1
    52     5    49    1
    53     5    50    1
@<TRIPOS>SUBSTRUCTURE
     1 N761298     1 GROUP             0 A     N76     0  
@<TRIPOS>SET
CCDC_LIGAND STATIC ATOMS
50 1 2 3 4 5 6 7 8 9 \
10 11 12 13 14 15 16 17 18 19 \
20 21 22 23 24 25 26 27 28 29 \
30 31 32 33 34 35 36 37 38 39 \
40 41 42 43 44 45 46 47 48 49 \
50 
@<TRIPOS>MOLECULE
A:18K299
    41    43     1     0     1
SMALL
NO_CHARGES
****
Generated from the CSD

@<TRIPOS>ATOM
     1 S       26.8295   7.8196  62.7498   S.3       1 18K299   0.0000
     2 C1      24.1846   4.7773  62.2821   C.3       1 18K299   0.0000
     3 N1      24.5735   7.1443  61.6763   N.2       1 18K299   0.0000
     4 C2      25.0191   6.0123  62.3325   C.2       1 18K299   0.0000
     5 N2      25.1562   9.3893  61.3500   N.pl3     1 18K299   0.0000
     6 C3      25.3976   8.1566  61.8174   C.2       1 18K299   0.0000
     7 N3      28.8542   3.8886  65.3582   N.ar      1 18K299   0.0000
     8 C4      26.2469   6.1854  62.9936   C.2       1 18K299   0.0000
     9 N4      30.0850   5.7847  65.6561   N.pl3     1 18K299   0.0000
    10 C5      27.1019   5.3012  63.8040   C.ar      1 18K299   0.0000
    11 N5      32.4159  10.9456  65.5222   N.3       1 18K299   0.0000
    12 C6      26.8499   3.9507  64.0111   C.ar      1 18K299   0.0000
    13 N6      28.1556   5.9326  64.3436   N.ar      1 18K299   0.0000
    14 C7      27.7766   3.3012  64.8109   C.ar      1 18K299   0.0000
    15 C8      29.0012   5.1933  65.0938   C.ar      1 18K299   0.0000
    16 C9      30.6482   7.0754  65.6044   C.ar      1 18K299   0.0000
    17 C10     31.6188   7.4262  66.5410   C.ar      1 18K299   0.0000
    18 C11     32.1627   8.6991  66.5437   C.ar      1 18K299   0.0000
    19 C12     31.7468   9.6233  65.5886   C.ar      1 18K299   0.0000
    20 C13     33.7838  10.8619  64.9257   C.3       1 18K299   0.0000
    21 C14     31.5968  12.0010  64.8569   C.3       1 18K299   0.0000
    22 C15     30.7643   9.2866  64.6541   C.ar      1 18K299   0.0000
    23 C16     30.2226   8.0127  64.6694   C.ar      1 18K299   0.0000
    24 H1      24.0616   4.4643  61.2463   H         1 18K299   0.0000
    25 H2      24.6750   3.9846  62.8451   H         1 18K299   0.0000
    26 H3      23.2077   4.9813  62.7181   H         1 18K299   0.0000
    27 H4      24.3175   9.5713  60.8080   H         1 18K299   0.0000
    28 H5      25.8120  10.1408  61.5380   H         1 18K299   0.0000
    29 H6      30.6111   5.1521  66.2505   H         1 18K299   0.0000
    30 H7      25.9900   3.4416  63.5782   H         1 18K299   0.0000
    31 H8      27.6208   2.2419  65.0095   H         1 18K299   0.0000
    32 H9      31.9514   6.6941  67.2755   H         1 18K299   0.0000
    33 H10     32.9096   8.9755  67.2864   H         1 18K299   0.0000
    34 H11     33.7146  10.4686  63.9126   H         1 18K299   0.0000
    35 H12     34.2299  11.8550  64.8999   H         1 18K299   0.0000
    36 H13     34.4035  10.2012  65.5301   H         1 18K299   0.0000
    37 H14     30.6653  12.1366  65.4045   H         1 18K299   0.0000
    38 H15     32.1514  12.9381  64.8463   H         1 18K299   0.0000
    39 H16     31.3759  11.6983  63.8344   H         1 18K299   0.0000
    40 H17     30.4281  10.0186  63.9213   H         1 18K299   0.0000
    41 H18     29.4572   7.7424  63.9435   H         1 18K299   0.0000
@<TRIPOS>BOND
     1     1     6    1
     2     1     8    1
     3     2     4    1
     4     3     4    1
     5     3     6    2
     6     4     8    2
     7     5     6    1
     8     7    14   ar
     9     7    15   ar
    10     8    10    1
    11     9    15    1
    12     9    16    1
    13    10    12   ar
    14    10    13   ar
    15    11    19    1
    16    11    20    1
    17    11    21    1
    18    12    14   ar
    19    13    15   ar
    20    16    17   ar
    21    16    23   ar
    22    17    18   ar
    23    18    19   ar
    24    19    22   ar
    25    22    23   ar
    26     2    24    1
    27     2    25    1
    28     2    26    1
    29     5    27    1
    30     5    28    1
    31     9    29    1
    32    12    30    1
    33    14    31    1
    34    17    32    1
    35    18    33    1
    36    20    34    1
    37    20    35    1
    38    20    36    1
    39    21    37    1
    40    21    38    1
    41    21    39    1
    42    22    40    1
    43    23    41    1
@<TRIPOS>SUBSTRUCTURE
     1 18K299      1 GROUP             0 A     18K     0  
@<TRIPOS>SET
CCDC_LIGAND STATIC ATOMS
41 1 2 3 4 5 6 7 8 9 \
10 11 12 13 14 15 16 17 18 19 \
20 21 22 23 24 25 26 27 28 29 \
30 31 32 33 34 35 36 37 38 39 \
40 41 
@<TRIPOS>MOLECULE
A:42K301
    36    39     1     0     1
SMALL
NO_CHARGES
****
Generated from the CSD

@<TRIPOS>ATOM
     1 N1      26.7702   3.5046  64.7259   N.am      1 42K301   0.0000
     2 N2      24.2205   6.5211  60.9804   N.2       1 42K301   0.0000
     3 N3      24.9670   7.5134  61.1137   N.2       1 42K301   0.0000
     4 N4      25.8766   7.3332  61.9598   N.pl3     1 42K301   0.0000
     5 N5      28.3439   6.6409  64.3738   N.2       1 42K301   0.0000
     6 N6      29.3844   6.6598  65.0701   N.pl3     1 42K301   0.0000
     7 N7      33.0556  12.1224  63.8713   N.pl3     1 42K301   0.0000
     8 OAB     28.6011   4.2047  65.9061   O.2       1 42K301   0.0000
     9 OAC     33.7636  11.3946  66.2542   O.2       1 42K301   0.0000
    10 OAD     34.6476  10.2506  64.3159   O.2       1 42K301   0.0000
    11 CAE     30.2526   8.6208  63.9873   C.ar      1 42K301   0.0000
    12 CAF     31.2898   7.7429  65.9981   C.ar      1 42K301   0.0000
    13 CAG     31.2133   9.6394  63.9395   C.ar      1 42K301   0.0000
    14 CAH     32.2456   8.7576  65.9575   C.ar      1 42K301   0.0000
    15 CAI     24.1616   4.2920  62.1374   C.ar      1 42K301   0.0000
    16 CAJ     24.8469   3.5328  63.1149   C.ar      1 42K301   0.0000
    17 CAQ     30.2684   7.6860  65.0389   C.ar      1 42K301   0.0000
    18 CAR     32.2042   9.6968  64.9234   C.ar      1 42K301   0.0000
    19 CAS     27.6697   4.4158  65.1071   C.2       1 42K301   0.0000
    20 CAT     27.4860   5.5871  64.3739   C.2       1 42K301   0.0000
    21 CAU     24.6009   5.5860  61.8680   C.ar      1 42K301   0.0000
    22 CAV     25.9590   4.0623  63.8011   C.ar      1 42K301   0.0000
    23 CAW     25.7435   6.0995  62.4938   C.ar      1 42K301   0.0000
    24 CAX     26.3979   5.3670  63.5155   C.ar      1 42K301   0.0000
    25 SAY     33.4491  10.9160  64.8775   S.o2      1 42K301   0.0000
    26 H1      26.7071   2.5529  65.0729   H         1 42K301   0.0000
    27 H2      26.5963   8.0061  62.2035   H         1 42K301   0.0000
    28 H3      29.5734   5.8736  65.6835   H         1 42K301   0.0000
    29 H4      32.8206  11.9208  62.9046   H         1 42K301   0.0000
    30 H5      33.0440  13.0801  64.2072   H         1 42K301   0.0000
    31 H6      24.5099   2.5223  63.3410   H         1 42K301   0.0000
    32 H7      29.4930   8.5525  63.2100   H         1 42K301   0.0000
    33 H8      31.3370   6.9881  66.7816   H         1 42K301   0.0000
    34 H9      31.1881  10.3806  63.1421   H         1 42K301   0.0000
    35 H10     33.0167   8.8175  66.7241   H         1 42K301   0.0000
    36 H11     23.3080   3.8733  61.6065   H         1 42K301   0.0000
@<TRIPOS>BOND
     1     1    19   am
     2     1    22    1
     3     2     3    2
     4     2    21    1
     5     3     4    1
     6     4    23    1
     7     5     6    1
     8     5    20    2
     9     6    17    1
    10     7    25    1
    11     8    19    2
    12     9    25    2
    13    10    25    2
    14    11    13   ar
    15    11    17   ar
    16    12    14   ar
    17    12    17   ar
    18    13    18   ar
    19    14    18   ar
    20    15    16   ar
    21    15    21   ar
    22    16    22   ar
    23    18    25    1
    24    19    20    1
    25    20    24    1
    26    21    23   ar
    27    22    24   ar
    28    23    24   ar
    29     1    26    1
    30     4    27    1
    31     6    28    1
    32     7    29    1
    33     7    30    1
    34    16    31    1
    35    11    32    1
    36    12    33    1
    37    13    34    1
    38    14    35    1
    39    15    36    1
@<TRIPOS>SUBSTRUCTURE
     1 42K301      1 GROUP             0 A     42K     0  
@<TRIPOS>SET
CCDC_LIGAND STATIC ATOMS
36 1 2 3 4 5 6 7 8 9 \
10 11 12 13 14 15 16 17 18 19 \
20 21 22 23 24 25 26 27 28 29 \
30 31 32 33 34 35 36 
@<TRIPOS>MOLECULE
A:FMD299
    48    50     1     0     1
SMALL
NO_CHARGES
****
Generated from the CSD

@<TRIPOS>ATOM
     1 F17     23.4172   5.6484  60.9058   F         1 FMD299   0.0000
     2 C1      24.2198   5.0771  61.8220   C.ar      1 FMD299   0.0000
     3 C2      25.3743   5.7834  62.1962   C.ar      1 FMD299   0.0000
     4 C18     25.6636   7.0273  61.6025   C.1       1 FMD299   0.0000
     5 C19     25.9259   8.0863  61.1124   C.1       1 FMD299   0.0000
     6 C20     26.2893   9.3213  60.5420   C.3       1 FMD299   0.0000
     7 O27     26.0763   9.2426  59.1294   O.3       1 FMD299   0.0000
     8 C23     25.6627  10.5611  61.2302   C.3       1 FMD299   0.0000
     9 N28     25.2728  10.3104  62.6241   N.3       1 FMD299   0.0000
    10 C24     26.7450  11.6563  61.1940   C.3       1 FMD299   0.0000
    11 O26     26.1918  12.9795  61.2067   O.3       1 FMD299   0.0000
    12 C25     27.7079  11.5237  59.9921   C.3       1 FMD299   0.0000
    13 C3      26.2236   5.1346  63.2084   C.ar      1 FMD299   0.0000
    14 C4      25.8416   3.8660  63.7445   C.ar      1 FMD299   0.0000
    15 N9      26.8253   3.5166  64.6488   N.am      1 FMD299   0.0000
    16 C8      27.8417   4.4774  64.7907   C.2       1 FMD299   0.0000
    17 O10     28.7870   4.3564  65.5442   O.2       1 FMD299   0.0000
    18 C5      24.6919   3.2099  63.3283   C.ar      1 FMD299   0.0000
    19 C6      23.8770   3.8284  62.3604   C.ar      1 FMD299   0.0000
    20 C7      27.3798   5.5169  63.8085   C.2       1 FMD299   0.0000
    21 C11     28.1196   6.7638  63.5510   C.2       1 FMD299   0.0000
    22 C12     29.3885   7.2986  64.0412   C.2       1 FMD299   0.0000
    23 C13     30.0241   8.4807  63.7140   C.2       1 FMD299   0.0000
    24 O21     29.5745   9.4225  62.8084   O.3       1 FMD299   0.0000
    25 C22     30.0346  10.7795  62.9189   C.3       1 FMD299   0.0000
    26 C14     31.2533   8.4780  64.5004   C.2       1 FMD299   0.0000
    27 C15     31.2683   7.3423  65.2450   C.2       1 FMD299   0.0000
    28 N16     30.1438   6.6289  64.9827   N.pl3     1 FMD299   0.0000
    29 H1      29.8972   5.7425  65.4113   H         1 FMD299   0.0000
    30 H2      24.7932  10.8906  60.6633   H         1 FMD299   0.0000
    31 H3      25.1184   9.0526  58.9492   H         1 FMD299   0.0000
    32 H4      26.0910  10.0413  63.1611   H         1 FMD299   0.0000
    33 H5      24.8708  11.1541  63.0200   H         1 FMD299   0.0000
    34 H6      27.3422  11.5486  62.0982   H         1 FMD299   0.0000
    35 H7      24.4255   2.2381  63.7412   H         1 FMD299   0.0000
    36 H8      25.6571  13.1068  62.0337   H         1 FMD299   0.0000
    37 H9      27.1418  11.5909  59.0642   H         1 FMD299   0.0000
    38 H10     28.4444  12.3252  60.0268   H         1 FMD299   0.0000
    39 H11     28.2160  10.5616  60.0385   H         1 FMD299   0.0000
    40 H12     27.3657   9.4119  60.6800   H         1 FMD299   0.0000
    41 H13     22.9684   3.3302  62.0255   H         1 FMD299   0.0000
    42 H14     27.6159   7.4260  62.8485   H         1 FMD299   0.0000
    43 H15     31.1187  10.8045  62.8191   H         1 FMD299   0.0000
    44 H16     29.5835  11.3811  62.1312   H         1 FMD299   0.0000
    45 H17     29.7502  11.1812  63.8904   H         1 FMD299   0.0000
    46 H18     32.0220   9.2494  64.4917   H         1 FMD299   0.0000
    47 H19     32.0547   7.0513  65.9398   H         1 FMD299   0.0000
    48 H20     26.8152   2.6430  65.1654   H         1 FMD299   0.0000
@<TRIPOS>BOND
     1     1     2    1
     2     2     3   ar
     3     2    19   ar
     4     3     4    1
     5     3    13   ar
     6     4     5    3
     7     5     6    1
     8     6     7    1
     9     6     8    1
    10     8     9    1
    11     8    10    1
    12    10    11    1
    13    10    12    1
    14    13    14   ar
    15    13    20    1
    16    14    15    1
    17    14    18   ar
    18    15    16   am
    19    16    17    2
    20    16    20    1
    21    18    19   ar
    22    20    21    2
    23    21    22    1
    24    22    23    2
    25    22    28    1
    26    23    24    1
    27    23    26    1
    28    24    25    1
    29    26    27    2
    30    27    28    1
    31    28    29    1
    32     8    30    1
    33     7    31    1
    34     9    32    1
    35     9    33    1
    36    10    34    1
    37    18    35    1
    38    11    36    1
    39    12    37    1
    40    12    38    1
    41    12    39    1
    42     6    40    1
    43    19    41    1
    44    21    42    1
    45    25    43    1
    46    25    44    1
    47    25    45    1
    48    26    46    1
    49    27    47    1
    50    15    48    1
@<TRIPOS>SUBSTRUCTURE
     1 FMD299      1 GROUP             0 A     FMD     0  
@<TRIPOS>SET
CCDC_LIGAND STATIC ATOMS
48 1 2 3 4 5 6 7 8 9 \
10 11 12 13 14 15 16 17 18 19 \
20 21 22 23 24 25 26 27 28 29 \
30 31 32 33 34 35 36 37 38 39 \
40 41 42 43 44 45 46 47 48 
@<TRIPOS>MOLECULE
A:C621297
    33    35     1     0     1
SMALL
NO_CHARGES
****
Generated from the CSD

@<TRIPOS>ATOM
     1 O4      33.6925  11.0298  66.1036   O.2       1 C621297   0.0000
     2 S2      33.2396  10.6973  64.7137   S.o2      1 C621297   0.0000
     3 O3      34.3901  10.1755  63.9249   O.2       1 C621297   0.0000
     4 N6      32.6558  12.0505  63.9928   N.pl3     1 C621297   0.0000
     5 C16     31.9757   9.4517  64.7800   C.ar      1 C621297   0.0000
     6 C15     30.9576   9.4529  63.8397   C.ar      1 C621297   0.0000
     7 C14     29.9829   8.4638  63.8700   C.ar      1 C621297   0.0000
     8 C13     30.0184   7.4617  64.8449   C.ar      1 C621297   0.0000
     9 C18     31.0464   7.4373  65.7806   C.ar      1 C621297   0.0000
    10 C17     32.0321   8.4343  65.7511   C.ar      1 C621297   0.0000
    11 C4      28.9744   6.4425  64.8516   C.2       1 C621297   0.0000
    12 O2      27.8142   6.5110  64.1504   O.3       1 C621297   0.0000
    13 C3      28.9933   5.2540  65.5049   C.2       1 C621297   0.0000
    14 C2      27.8431   4.6153  65.1959   C.2       1 C621297   0.0000
    15 C1      27.1337   5.4219  64.3408   C.2       1 C621297   0.0000
    16 C6      25.8414   5.1226  63.7495   C.2       1 C621297   0.0000
    17 C7      25.4031   5.8107  62.5931   C.2       1 C621297   0.0000
    18 S1      26.3679   6.8195  61.6332   S.3       1 C621297   0.0000
    19 C9      25.1155   7.1348  60.5922   C.2       1 C621297   0.0000
    20 N2      23.9723   6.4823  60.9497   N.am      1 C621297   0.0000
    21 C8      24.1150   5.7293  62.0838   C.2       1 C621297   0.0000
    22 O1      23.2095   5.0670  62.5940   O.2       1 C621297   0.0000
    23 O5      25.2103   7.8688  59.6060   O.2       1 C621297   0.0000
    24 H1      32.8414   8.4215  66.4796   H         1 C621297   0.0000
    25 H2      29.7850   4.8846  66.1549   H         1 C621297   0.0000
    26 H3      25.2046   4.3625  64.1996   H         1 C621297   0.0000
    27 H4      31.0859   6.6494  66.5313   H         1 C621297   0.0000
    28 H5      32.3038  12.0073  63.0418   H         1 C621297   0.0000
    29 H6      32.6467  12.9309  64.4978   H         1 C621297   0.0000
    30 H7      29.1850   8.4687  63.1289   H         1 C621297   0.0000
    31 H8      23.1042   6.5484  60.4279   H         1 C621297   0.0000
    32 H9      30.9217  10.2294  63.0771   H         1 C621297   0.0000
    33 H10     27.5343   3.6364  65.5598   H         1 C621297   0.0000
@<TRIPOS>BOND
     1     1     2    2
     2     2     3    2
     3     2     4    1
     4     2     5    1
     5     5     6   ar
     6     5    10   ar
     7     6     7   ar
     8     7     8   ar
     9     8     9   ar
    10     8    11    1
    11     9    10   ar
    12    11    12    1
    13    11    13    2
    14    12    15    1
    15    13    14    1
    16    14    15    2
    17    15    16    1
    18    16    17    2
    19    17    18    1
    20    17    21    1
    21    18    19    1
    22    19    20   am
    23    19    23    2
    24    20    21   am
    25    21    22    2
    26    10    24    1
    27    13    25    1
    28    16    26    1
    29     9    27    1
    30     4    28    1
    31     4    29    1
    32     7    30    1
    33    20    31    1
    34     6    32    1
    35    14    33    1
@<TRIPOS>SUBSTRUCTURE
     1 C621297     1 GROUP             0 A     C62     0  
@<TRIPOS>SET
CCDC_LIGAND STATIC ATOMS
33 1 2 3 4 5 6 7 8 9 \
10 11 12 13 14 15 16 17 18 19 \
20 21 22 23 24 25 26 27 28 29 \
30 31 32 33 
@<TRIPOS>MOLECULE
A:FRT1299
    56    58     1     0     1
SMALL
NO_CHARGES
****
Generated from the CSD

@<TRIPOS>ATOM
     1 C1      26.2293   5.1265  63.7181   C.ar      1 FRT1299   0.0000
     2 N2      27.2185   5.8191  64.3581   N.ar      1 FRT1299   0.0000
     3 C3      28.1083   5.1645  65.1232   C.ar      1 FRT1299   0.0000
     4 N4      28.1140   3.8451  65.3232   N.ar      1 FRT1299   0.0000
     5 C5      27.1657   3.1049  64.7217   C.ar      1 FRT1299   0.0000
     6 C6      26.1739   3.6887  63.8928   C.ar      1 FRT1299   0.0000
     7 N7      29.1049   6.0060  65.7459   N.pl3     1 FRT1299   0.0000
     8 C8      29.8847   7.1673  65.3656   C.ar      1 FRT1299   0.0000
     9 C9      29.7424   7.8407  64.1092   C.ar      1 FRT1299   0.0000
    10 C10     30.5388   8.9664  63.8031   C.ar      1 FRT1299   0.0000
    11 C11     31.4805   9.4186  64.7535   C.ar      1 FRT1299   0.0000
    12 C12     31.6468   8.7783  66.0040   C.ar      1 FRT1299   0.0000
    13 C13     30.8454   7.6496  66.3070   C.ar      1 FRT1299   0.0000
    14 S14     32.4622  10.7940  64.3754   S.o2      1 FRT1299   0.0000
    15 N15     31.5522  11.8096  63.2980   N.pl3     1 FRT1299   0.0000
    16 C16     31.0741  13.0409  63.9610   C.3       1 FRT1299   0.0000
    17 C17     30.2949  13.9206  62.9812   C.3       1 FRT1299   0.0000
    18 O18     29.8509  15.1131  63.6567   O.3       1 FRT1299   0.0000
    19 C19     29.1003  16.0283  62.8241   C.3       1 FRT1299   0.0000
    20 C20     25.2768   5.8336  62.8872   C.2       1 FRT1299   0.0000
    21 N21     25.4979   7.0356  62.1256   N.pl3     1 FRT1299   0.0000
    22 C22     24.1952   7.1585  61.5613   C.2       1 FRT1299   0.0000
    23 N23     23.2238   6.2388  61.8512   N.2       1 FRT1299   0.0000
    24 C24     23.9219   5.4083  62.6880   C.2       1 FRT1299   0.0000
    25 C25     26.7675   7.8784  61.9717   C.3       1 FRT1299   0.0000
    26 C26     27.2868   7.8770  60.5204   C.3       1 FRT1299   0.0000
    27 C27     26.5625   9.3298  62.4816   C.3       1 FRT1299   0.0000
    28 C28     23.7476   8.2811  60.6008   C.3       1 FRT1299   0.0000
    29 O29     32.7994  11.6030  65.7072   O.2       1 FRT1299   0.0000
    30 O30     33.7976  10.3324  63.6429   O.2       1 FRT1299   0.0000
    31 H1      26.2921   9.3092  63.5363   H         1 FRT1299   0.0000
    32 H2      27.4859   9.8930  62.3545   H         1 FRT1299   0.0000
    33 H3      25.7658   9.8056  61.9118   H         1 FRT1299   0.0000
    34 H4      31.3700  11.5833  62.3255   H         1 FRT1299   0.0000
    35 H5      27.5372   7.4220  62.5923   H         1 FRT1299   0.0000
    36 H6      23.4940   4.5209  63.1519   H         1 FRT1299   0.0000
    37 H7      26.5233   8.2876  59.8613   H         1 FRT1299   0.0000
    38 H8      28.1873   8.4860  60.4565   H         1 FRT1299   0.0000
    39 H9      27.5166   6.8563  60.2181   H         1 FRT1299   0.0000
    40 H10     31.9302  13.5986  64.3378   H         1 FRT1299   0.0000
    41 H11     30.4238  12.7694  64.7913   H         1 FRT1299   0.0000
    42 H12     30.9627   7.1456  67.2652   H         1 FRT1299   0.0000
    43 H13     29.4316  13.3718  62.6079   H         1 FRT1299   0.0000
    44 H14     30.9395  14.1942  62.1472   H         1 FRT1299   0.0000
    45 H15     28.2101  15.5280  62.4456   H         1 FRT1299   0.0000
    46 H16     28.8063  16.8964  63.4123   H         1 FRT1299   0.0000
    47 H17     29.7195  16.3493  61.9877   H         1 FRT1299   0.0000
    48 H18     24.3656   8.2598  59.7045   H         1 FRT1299   0.0000
    49 H19     22.7047   8.1295  60.3264   H         1 FRT1299   0.0000
    50 H20     23.8566   9.2458  61.0941   H         1 FRT1299   0.0000
    51 H21     32.3783   9.1466  66.7217   H         1 FRT1299   0.0000
    52 H22     29.3120   5.7068  66.6934   H         1 FRT1299   0.0000
    53 H23     29.0138   7.4817  63.3838   H         1 FRT1299   0.0000
    54 H24     30.4282   9.4781  62.8483   H         1 FRT1299   0.0000
    55 H25     27.1592   2.0268  64.8754   H         1 FRT1299   0.0000
    56 H26     25.4067   3.0850  63.4103   H         1 FRT1299   0.0000
@<TRIPOS>BOND
     1     1     2   ar
     2     1     6   ar
     3     1    20    1
     4     2     3   ar
     5     3     4   ar
     6     3     7    1
     7     4     5   ar
     8     5     6   ar
     9     7     8    1
    10     8     9   ar
    11     8    13   ar
    12     9    10   ar
    13    10    11   ar
    14    11    12   ar
    15    11    14    1
    16    12    13   ar
    17    14    15    1
    18    14    29    2
    19    14    30    2
    20    15    16    1
    21    16    17    1
    22    17    18    1
    23    18    19    1
    24    20    21    1
    25    20    24    2
    26    21    22    1
    27    21    25    1
    28    22    23    2
    29    22    28    1
    30    23    24    1
    31    25    26    1
    32    25    27    1
    33    27    31    1
    34    27    32    1
    35    27    33    1
    36    15    34    1
    37    25    35    1
    38    24    36    1
    39    26    37    1
    40    26    38    1
    41    26    39    1
    42    16    40    1
    43    16    41    1
    44    13    42    1
    45    17    43    1
    46    17    44    1
    47    19    45    1
    48    19    46    1
    49    19    47    1
    50    28    48    1
    51    28    49    1
    52    28    50    1
    53    12    51    1
    54     7    52    1
    55     9    53    1
    56    10    54    1
    57     5    55    1
    58     6    56    1
@<TRIPOS>SUBSTRUCTURE
     1 FRT1299     1 GROUP             0 A     FRT     0  
@<TRIPOS>SET
CCDC_LIGAND STATIC ATOMS
56 1 2 3 4 5 6 7 8 9 \
10 11 12 13 14 15 16 17 18 19 \
20 21 22 23 24 25 26 27 28 29 \
30 31 32 33 34 35 36 37 38 39 \
40 41 42 43 44 45 46 47 48 49 \
50 51 52 53 54 55 56 
@<TRIPOS>MOLECULE
A:X06300
    24    25     1     0     1
SMALL
NO_CHARGES
****
Generated from the CSD

@<TRIPOS>ATOM
     1 N01     28.4363   7.8578  63.6769   N.ar      1 X06300   0.0000
     2 N02     30.4423   8.6089  64.7796   N.ar      1 X06300   0.0000
     3 N03     29.5500   6.4308  65.2494   N.ar      1 X06300   0.0000
     4 N04     29.3535   9.8803  63.3079   N.pl3     1 X06300   0.0000
     5 N05     31.3994   7.1987  66.2193   N.pl3     1 X06300   0.0000
     6 C06     25.5131   4.9309  63.0437   C.ar      1 X06300   0.0000
     7 C07     25.6654   3.6513  63.6409   C.ar      1 X06300   0.0000
     8 C08     26.7821   3.3918  64.4917   C.ar      1 X06300   0.0000
     9 C09     27.7495   4.4000  64.7493   C.ar      1 X06300   0.0000
    10 C10     27.6147   5.7073  64.1485   C.ar      1 X06300   0.0000
    11 C11     26.4805   5.9550  63.2923   C.ar      1 X06300   0.0000
    12 C12     28.5576   6.6966  64.3710   C.ar      1 X06300   0.0000
    13 C13     29.4137   8.7677  63.9322   C.ar      1 X06300   0.0000
    14 C14     30.4511   7.4163  65.4081   C.ar      1 X06300   0.0000
    15 O15     28.7996   4.1164  65.5582   O.3       1 X06300   0.0000
    16 CL16    24.1567   5.2263  62.0104   Cl        1 X06300   0.0000
    17 H1      31.4492   6.3153  66.7167   H         1 X06300   0.0000
    18 H2      32.1095   7.9077  66.3719   H         1 X06300   0.0000
    19 H3      30.0615  10.5902  63.4664   H         1 X06300   0.0000
    20 H4      28.5977  10.0547  62.6533   H         1 X06300   0.0000
    21 H5      24.9317   2.8695  63.4501   H         1 X06300   0.0000
    22 H6      26.8938   2.4096  64.9485   H         1 X06300   0.0000
    23 H7      26.3593   6.9334  62.8296   H         1 X06300   0.0000
    24 H8      29.3217   3.3654  65.1718   H         1 X06300   0.0000
@<TRIPOS>BOND
     1     1    12   ar
     2     1    13   ar
     3     2    13   ar
     4     2    14   ar
     5     3    12   ar
     6     3    14   ar
     7     4    13    1
     8     5    14    1
     9     6     7   ar
    10     6    11   ar
    11     6    16    1
    12     7     8   ar
    13     8     9   ar
    14     9    10   ar
    15     9    15    1
    16    10    11   ar
    17    10    12    1
    18     5    17    1
    19     5    18    1
    20     4    19    1
    21     4    20    1
    22     7    21    1
    23     8    22    1
    24    11    23    1
    25    15    24    1
@<TRIPOS>SUBSTRUCTURE
     1 X06300      1 GROUP             0 A     X06     0  
@<TRIPOS>SET
CCDC_LIGAND STATIC ATOMS
24 1 2 3 4 5 6 7 8 9 \
10 11 12 13 14 15 16 17 18 19 \
20 21 22 23 24 
@<TRIPOS>MOLECULE
A:404299
    52    54     1     0     1
SMALL
NO_CHARGES
****
Generated from the CSD

@<TRIPOS>ATOM
     1 C1      29.1892   6.7126  64.5244   C.ar      1 404299   0.0000
     2 C2      28.2498   5.5723  64.6266   C.ar      1 404299   0.0000
     3 C3      27.0272   5.6404  63.8154   C.ar      1 404299   0.0000
     4 N4      26.7724   6.7065  62.9928   N.ar      1 404299   0.0000
     5 C5      27.6979   7.7230  62.9468   C.ar      1 404299   0.0000
     6 N6      28.8431   7.7156  63.6965   N.ar      1 404299   0.0000
     7 N7      28.2192   4.4171  65.3244   N.pl3     1 404299   0.0000
     8 N8      27.0528   3.6895  65.0140   N.2       1 404299   0.0000
     9 C9      26.3100   4.3720  64.1260   C.2       1 404299   0.0000
    10 C10     24.9999   4.0460  63.4925   C.3       1 404299   0.0000
    11 C11     25.1586   3.8583  61.9794   C.3       1 404299   0.0000
    12 C12     23.9367   5.0983  63.8155   C.3       1 404299   0.0000
    13 N13     30.3366   6.7465  65.2413   N.pl3     1 404299   0.0000
    14 C14     31.3452   7.7654  64.9857   C.3       1 404299   0.0000
    15 C15     31.3507   8.7947  66.0963   C.ar      1 404299   0.0000
    16 C16     31.0639  10.1222  65.8069   C.ar      1 404299   0.0000
    17 C17     31.0632  11.0708  66.8199   C.ar      1 404299   0.0000
    18 C18     31.3493  10.6889  68.1244   C.ar      1 404299   0.0000
    19 C19     31.6362   9.3634  68.4197   C.ar      1 404299   0.0000
    20 C20     31.6319   8.4169  67.4057   C.ar      1 404299   0.0000
    21 N21     27.5307   8.8251  62.1699   N.pl3     1 404299   0.0000
    22 C22     26.7211   8.8911  60.9647   C.3       1 404299   0.0000
    23 C23     25.3368   9.4325  61.3034   C.3       1 404299   0.0000
    24 C24     25.4444  10.5723  62.2895   C.3       1 404299   0.0000
    25 C25     26.5872   7.5333  60.2855   C.3       1 404299   0.0000
    26 O26     25.3384   6.9584  60.6880   O.3       1 404299   0.0000
    27 H1      28.9340   4.1156  65.9790   H         1 404299   0.0000
    28 H2      30.4960   6.0537  65.9658   H         1 404299   0.0000
    29 H3      31.1246   8.2591  64.0404   H         1 404299   0.0000
    30 H4      32.3251   7.2938  64.9290   H         1 404299   0.0000
    31 H5      30.8391  10.4194  64.7836   H         1 404299   0.0000
    32 H6      30.8389  12.1120  66.5927   H         1 404299   0.0000
    33 H7      31.3485  11.4332  68.9193   H         1 404299   0.0000
    34 H8      31.8635   9.0679  69.4429   H         1 404299   0.0000
    35 H9      31.8493   7.3748  67.6351   H         1 404299   0.0000
    36 H10     28.0110   9.6727  62.4550   H         1 404299   0.0000
    37 H11     24.6609   3.0980  63.9076   H         1 404299   0.0000
    38 H12     25.8546   3.0434  61.7858   H         1 404299   0.0000
    39 H13     24.1910   3.6214  61.5395   H         1 404299   0.0000
    40 H14     25.5430   4.7766  61.5381   H         1 404299   0.0000
    41 H15     24.2633   6.0694  63.4464   H         1 404299   0.0000
    42 H16     22.9979   4.8248  63.3363   H         1 404299   0.0000
    43 H17     23.7925   5.1495  64.8937   H         1 404299   0.0000
    44 H18     24.5947   7.5553  60.4111   H         1 404299   0.0000
    45 H19     27.1979   9.5786  60.2676   H         1 404299   0.0000
    46 H20     24.7367   8.6356  61.7401   H         1 404299   0.0000
    47 H21     24.8584   9.7897  60.3927   H         1 404299   0.0000
    48 H22     26.0419  11.3726  61.8554   H         1 404299   0.0000
    49 H23     24.4485  10.9474  62.5208   H         1 404299   0.0000
    50 H24     25.9202  10.2184  63.2029   H         1 404299   0.0000
    51 H25     27.4076   6.8852  60.5900   H         1 404299   0.0000
    52 H26     26.6052   7.6577  59.2038   H         1 404299   0.0000
@<TRIPOS>BOND
     1     1     2   ar
     2     1     6   ar
     3     1    13    1
     4     2     3   ar
     5     2     7    1
     6     3     4   ar
     7     3     9    1
     8     4     5   ar
     9     5     6   ar
    10     5    21    1
    11     7     8    1
    12     8     9    2
    13     9    10    1
    14    10    11    1
    15    10    12    1
    16    13    14    1
    17    14    15    1
    18    15    16   ar
    19    15    20   ar
    20    16    17   ar
    21    17    18   ar
    22    18    19   ar
    23    19    20   ar
    24    21    22    1
    25    22    23    1
    26    22    25    1
    27    23    24    1
    28    25    26    1
    29     7    27    1
    30    13    28    1
    31    14    29    1
    32    14    30    1
    33    16    31    1
    34    17    32    1
    35    18    33    1
    36    19    34    1
    37    20    35    1
    38    21    36    1
    39    10    37    1
    40    11    38    1
    41    11    39    1
    42    11    40    1
    43    12    41    1
    44    12    42    1
    45    12    43    1
    46    26    44    1
    47    22    45    1
    48    23    46    1
    49    23    47    1
    50    24    48    1
    51    24    49    1
    52    24    50    1
    53    25    51    1
    54    25    52    1
@<TRIPOS>SUBSTRUCTURE
     1 404299      1 GROUP             0 A     404     0  
@<TRIPOS>SET
CCDC_LIGAND STATIC ATOMS
52 1 2 3 4 5 6 7 8 9 \
10 11 12 13 14 15 16 17 18 19 \
20 21 22 23 24 25 26 27 28 29 \
30 31 32 33 34 35 36 37 38 39 \
40 41 42 43 44 45 46 47 48 49 \
50 51 52 
@<TRIPOS>MOLECULE
A:X76488
    30    31     1     0     1
SMALL
NO_CHARGES
****
Generated from the CSD

@<TRIPOS>ATOM
     1 N01     29.9831   6.3646  64.7620   N.pl3     1 X76488   0.0000
     2 N02     26.9743   3.5737  64.6307   N.am      1 X76488   0.0000
     3 N03     31.5944   8.9803  67.8085   N.ar      1 X76488   0.0000
     4 C04     26.3982   6.2876  63.9768   C.ar      1 X76488   0.0000
     5 C05     27.6757   5.8601  64.4668   C.ar      1 X76488   0.0000
     6 C06     28.8151   6.7410  64.3199   C.ar      1 X76488   0.0000
     7 C07     28.6276   8.0250  63.6787   C.ar      1 X76488   0.0000
     8 C08     27.3517   8.4238  63.2024   C.ar      1 X76488   0.0000
     9 C09     26.2386   7.5567  63.3519   C.ar      1 X76488   0.0000
    10 C10     27.7804   4.6050  65.0625   C.2       1 X76488   0.0000
    11 C11     31.2641   7.0846  64.4865   C.3       1 X76488   0.0000
    12 C12     31.5010   8.1938  65.4835   C.ar      1 X76488   0.0000
    13 C13     31.3881   7.9844  66.8765   C.ar      1 X76488   0.0000
    14 C14     31.9281  10.2324  67.3443   C.ar      1 X76488   0.0000
    15 C15     32.0643  10.5380  65.9739   C.ar      1 X76488   0.0000
    16 C16     31.8444   9.4941  65.0381   C.ar      1 X76488   0.0000
    17 O17     28.5778   4.3872  65.9502   O.2       1 X76488   0.0000
    18 H1      31.9401   9.6937  63.9718   H         1 X76488   0.0000
    19 H2      32.3293  11.5417  65.6450   H         1 X76488   0.0000
    20 H3      32.0954  11.0262  68.0708   H         1 X76488   0.0000
    21 H4      31.1256   6.9889  67.2314   H         1 X76488   0.0000
    22 H5      27.0474   2.6578  65.0620   H         1 X76488   0.0000
    23 H6      26.3077   3.7302  63.8815   H         1 X76488   0.0000
    24 H7      30.0252   5.5258  65.3319   H         1 X76488   0.0000
    25 H8      27.2272   9.3937  62.7231   H         1 X76488   0.0000
    26 H9      31.2218   7.5116  63.4856   H         1 X76488   0.0000
    27 H10     32.0882   6.3751  64.5440   H         1 X76488   0.0000
    28 H11     25.5360   5.6311  64.0843   H         1 X76488   0.0000
    29 H12     25.2591   7.8629  62.9875   H         1 X76488   0.0000
    30 H13     29.4780   8.6948  63.5601   H         1 X76488   0.0000
@<TRIPOS>BOND
     1     1     6    1
     2     1    11    1
     3     2    10   am
     4     3    13   ar
     5     3    14   ar
     6     4     5   ar
     7     4     9   ar
     8     5     6   ar
     9     5    10    1
    10     6     7   ar
    11     7     8   ar
    12     8     9   ar
    13    10    17    2
    14    11    12    1
    15    12    13   ar
    16    12    16   ar
    17    14    15   ar
    18    15    16   ar
    19    16    18    1
    20    15    19    1
    21    14    20    1
    22    13    21    1
    23     2    22    1
    24     2    23    1
    25     1    24    1
    26     8    25    1
    27    11    26    1
    28    11    27    1
    29     4    28    1
    30     9    29    1
    31     7    30    1
@<TRIPOS>SUBSTRUCTURE
     1 X76488      1 GROUP             0 A     X76     0  
@<TRIPOS>SET
CCDC_LIGAND STATIC ATOMS
30 1 2 3 4 5 6 7 8 9 \
10 11 12 13 14 15 16 17 18 19 \
20 21 22 23 24 25 26 27 28 29 \
30 
@<TRIPOS>MOLECULE
A:1PU501
    39    42     1     0     1
SMALL
NO_CHARGES
****
Generated from the CSD

@<TRIPOS>ATOM
     1 C1      26.0679   6.0836  63.0465   C.ar      1 1PU501   0.0000
     2 C2      26.2428   7.5288  62.6329   C.3       1 1PU501   0.0000
     3 C3      24.8586   5.6142  62.4885   C.ar      1 1PU501   0.0000
     4 C7      24.2248   6.6873  61.7443   C.2       1 1PU501   0.0000
     5 C6      27.3095   7.8183  61.5519   C.3       1 1PU501   0.0000
     6 C4      26.8654   5.2388  63.8294   C.ar      1 1PU501   0.0000
     7 N5      25.0309   7.7568  61.8427   N.am      1 1PU501   0.0000
     8 C8      24.4350   4.2918  62.6920   C.ar      1 1PU501   0.0000
     9 C9      26.4317   3.9134  64.0292   C.ar      1 1PU501   0.0000
    10 N10     28.0687   5.7702  64.3832   N.am      1 1PU501   0.0000
    11 C11     25.1589   8.7557  60.7620   C.3       1 1PU501   0.0000
    12 C12     26.6904   8.9294  60.6735   C.3       1 1PU501   0.0000
    13 O13     23.1905   6.6049  61.1696   O.2       1 1PU501   0.0000
    14 C14     25.2353   3.4516  63.4608   C.ar      1 1PU501   0.0000
    15 C15     28.9482   5.2439  65.2019   C.2       1 1PU501   0.0000
    16 N16     30.0319   5.9551  65.4575   N.am      1 1PU501   0.0000
    17 O17     28.7627   4.1241  65.6640   O.2       1 1PU501   0.0000
    18 C18     30.4613   7.2451  65.0434   C.ar      1 1PU501   0.0000
    19 C19     31.6762   7.8371  65.4387   C.ar      1 1PU501   0.0000
    20 N20     29.6351   7.8918  64.2371   N.ar      1 1PU501   0.0000
    21 C21     31.9851   9.1236  64.9593   C.ar      1 1PU501   0.0000
    22 C22     29.9022   9.1143  63.7691   C.ar      1 1PU501   0.0000
    23 C23     31.0881   9.7807  64.1124   C.ar      1 1PU501   0.0000
    24 H1      28.2806   6.7196  64.0934   H         1 1PU501   0.0000
    25 H2      30.6893   5.4864  66.0726   H         1 1PU501   0.0000
    26 H3      24.9277   2.4197  63.6236   H         1 1PU501   0.0000
    27 H4      27.0222   8.8221  59.6418   H         1 1PU501   0.0000
    28 H5      26.9801   9.9101  61.0478   H         1 1PU501   0.0000
    29 H6      27.5070   6.9263  60.9593   H         1 1PU501   0.0000
    30 H7      28.2357   8.1626  62.0095   H         1 1PU501   0.0000
    31 H8      23.5030   3.9317  62.2589   H         1 1PU501   0.0000
    32 H9      27.0343   3.2372  64.6338   H         1 1PU501   0.0000
    33 H10     26.3186   8.2015  63.4858   H         1 1PU501   0.0000
    34 H11     32.3620   7.3107  66.1009   H         1 1PU501   0.0000
    35 H12     24.6682   9.6913  61.0263   H         1 1PU501   0.0000
    36 H13     24.7473   8.3819  59.8256   H         1 1PU501   0.0000
    37 H14     32.9186   9.6051  65.2469   H         1 1PU501   0.0000
    38 H15     29.1864   9.6023  63.1091   H         1 1PU501   0.0000
    39 H16     31.3029  10.7779  63.7312   H         1 1PU501   0.0000
@<TRIPOS>BOND
     1     1     2    1
     2     1     3   ar
     3     1     6   ar
     4     2     5    1
     5     2     7    1
     6     3     4    1
     7     3     8   ar
     8     4     7   am
     9     4    13    2
    10     5    12    1
    11     6     9   ar
    12     6    10    1
    13     7    11    1
    14     8    14   ar
    15     9    14   ar
    16    10    15   am
    17    11    12    1
    18    15    16   am
    19    15    17    2
    20    16    18    1
    21    18    19   ar
    22    18    20   ar
    23    19    21   ar
    24    20    22   ar
    25    21    23   ar
    26    22    23   ar
    27    10    24    1
    28    16    25    1
    29    14    26    1
    30    12    27    1
    31    12    28    1
    32     5    29    1
    33     5    30    1
    34     8    31    1
    35     9    32    1
    36     2    33    1
    37    19    34    1
    38    11    35    1
    39    11    36    1
    40    21    37    1
    41    22    38    1
    42    23    39    1
@<TRIPOS>SUBSTRUCTURE
     1 1PU501      1 GROUP             0 A     1PU     0  
@<TRIPOS>SET
CCDC_LIGAND STATIC ATOMS
39 1 2 3 4 5 6 7 8 9 \
10 11 12 13 14 15 16 17 18 19 \
20 21 22 23 24 25 26 27 28 29 \
30 31 32 33 34 35 36 37 38 39 
@<TRIPOS>MOLECULE
A:25Z529
    37    39     1     0     1
SMALL
NO_CHARGES
****
Generated from the CSD

@<TRIPOS>ATOM
     1 C1      25.7818   9.5501  60.5453   C.ar      1 25Z529   0.0000
     2 F1      26.2847  10.7794  63.9986   F         1 25Z529   0.0000
     3 N1      28.7727   4.6194  65.4304   N.pl3     1 25Z529   0.0000
     4 O1      25.7547   4.7832  62.3814   O.2       1 25Z529   0.0000
     5 S1      28.5675   6.9168  64.2778   S.3       1 25Z529   0.0000
     6 C2      25.9922   9.6293  61.9914   C.ar      1 25Z529   0.0000
     7 F2      24.7144  11.4660  62.5683   F         1 25Z529   0.0000
     8 N2      30.3428   6.1943  66.1980   N.2       1 25Z529   0.0000
     9 C3      26.2187   8.3728  62.7050   C.ar      1 25Z529   0.0000
    10 F3      26.8785  11.7754  62.0668   F         1 25Z529   0.0000
    11 N3      27.0697   3.3316  64.3904   N.pl3     1 25Z529   0.0000
    12 C4      26.2423   7.0706  62.0262   C.ar      1 25Z529   0.0000
    13 C5      26.0225   7.0655  60.5722   C.ar      1 25Z529   0.0000
    14 C6      25.7970   8.2897  59.8525   C.ar      1 25Z529   0.0000
    15 C7      25.9683  10.9028  62.6500   C.3       1 25Z529   0.0000
    16 C8      26.4638   5.8758  62.7241   C.2       1 25Z529   0.0000
    17 C9      27.5105   5.6705  63.8140   C.2       1 25Z529   0.0000
    18 C10     29.3126   5.8698  65.4006   C.2       1 25Z529   0.0000
    19 C11     27.7556   4.5001  64.5424   C.2       1 25Z529   0.0000
    20 C12     31.1788   7.3352  66.1527   C.ar      1 25Z529   0.0000
    21 C13     31.4791   8.1451  64.9457   C.ar      1 25Z529   0.0000
    22 C14     32.3471   9.2987  65.0151   C.ar      1 25Z529   0.0000
    23 C15     32.9340   9.6737  66.2740   C.ar      1 25Z529   0.0000
    24 C16     32.6640   8.9065  67.4587   C.ar      1 25Z529   0.0000
    25 C17     31.7974   7.7540  67.3982   C.ar      1 25Z529   0.0000
    26 H1      31.6029   7.1859  68.3067   H         1 25Z529   0.0000
    27 H2      33.1155   9.1960  68.4065   H         1 25Z529   0.0000
    28 H3      25.6100  10.4657  59.9813   H         1 25Z529   0.0000
    29 H4      29.0913   3.8727  66.0396   H         1 25Z529   0.0000
    30 H5      26.3760   8.4041  63.7821   H         1 25Z529   0.0000
    31 H6      26.3124   3.2715  63.7173   H         1 25Z529   0.0000
    32 H7      27.3165   2.5218  64.9503   H         1 25Z529   0.0000
    33 H8      26.0305   6.1199  60.0321   H         1 25Z529   0.0000
    34 H9      25.6367   8.2624  58.7758   H         1 25Z529   0.0000
    35 H10     31.0375   7.8650  63.9905   H         1 25Z529   0.0000
    36 H11     32.5557   9.8813  64.1190   H         1 25Z529   0.0000
    37 H12     33.5865  10.5438  66.3294   H         1 25Z529   0.0000
@<TRIPOS>BOND
     1     1     6   ar
     2     1    14   ar
     3     2    15    1
     4     3    18    1
     5     3    19    1
     6     4    16    2
     7     5    17    1
     8     5    18    1
     9     6     9   ar
    10     6    15    1
    11     7    15    1
    12     8    18    2
    13     8    20    1
    14     9    12   ar
    15    10    15    1
    16    11    19    1
    17    12    13   ar
    18    12    16    1
    19    13    14   ar
    20    16    17    1
    21    17    19    2
    22    20    21   ar
    23    20    25   ar
    24    21    22   ar
    25    22    23   ar
    26    23    24   ar
    27    24    25   ar
    28    25    26    1
    29    24    27    1
    30     1    28    1
    31     3    29    1
    32     9    30    1
    33    11    31    1
    34    11    32    1
    35    13    33    1
    36    14    34    1
    37    21    35    1
    38    22    36    1
    39    23    37    1
@<TRIPOS>SUBSTRUCTURE
     1 25Z529      1 GROUP             0 A     25Z     0  
@<TRIPOS>SET
CCDC_LIGAND STATIC ATOMS
37 1 2 3 4 5 6 7 8 9 \
10 11 12 13 14 15 16 17 18 19 \
20 21 22 23 24 25 26 27 28 29 \
30 31 32 33 34 35 36 37 
@<TRIPOS>MOLECULE
A:SZL1299
    17    18     1     0     1
SMALL
NO_CHARGES
****
Generated from the CSD

@<TRIPOS>ATOM
     1 C1      26.6858   5.4142  64.0501   C.ar      1 SZL1299   0.0000
     2 N4      25.7294   4.9238  63.3179   N.2       1 SZL1299   0.0000
     3 C9      25.6500   3.6197  63.4897   C.2       1 SZL1299   0.0000
     4 N5      26.5676   3.2485  64.4034   N.pl3     1 SZL1299   0.0000
     5 C2      27.2019   4.3779  64.7533   C.ar      1 SZL1299   0.0000
     6 N6      28.1965   4.6137  65.6413   N.ar      1 SZL1299   0.0000
     7 C10     28.7042   5.8473  65.8386   C.ar      1 SZL1299   0.0000
     8 N7      28.1611   6.8838  65.0894   N.ar      1 SZL1299   0.0000
     9 C3      27.1444   6.6617  64.2633   C.ar      1 SZL1299   0.0000
    10 O8      26.5797   7.6365  63.5379   O.3       1 SZL1299   0.0000
    11 C11     27.1032   8.9060  63.7258   C.3       1 SZL1299   0.0000
    12 H1      28.1605   8.9049  63.4647   H         1 SZL1299   0.0000
    13 H2      26.5733   9.6147  63.0911   H         1 SZL1299   0.0000
    14 H3      26.9872   9.1957  64.7691   H         1 SZL1299   0.0000
    15 H4      29.5056   6.0235  66.5546   H         1 SZL1299   0.0000
    16 H5      26.7424   2.3119  64.7533   H         1 SZL1299   0.0000
    17 H6      24.9575   2.9529  62.9780   H         1 SZL1299   0.0000
@<TRIPOS>BOND
     1     1     2    1
     2     1     5   ar
     3     1     9   ar
     4     2     3    2
     5     3     4    1
     6     4     5    1
     7     5     6   ar
     8     6     7   ar
     9     7     8   ar
    10     8     9   ar
    11     9    10    1
    12    10    11    1
    13    11    12    1
    14    11    13    1
    15    11    14    1
    16     7    15    1
    17     4    16    1
    18     3    17    1
@<TRIPOS>SUBSTRUCTURE
     1 SZL1299     1 GROUP             0 A     SZL     0  
@<TRIPOS>SET
CCDC_LIGAND STATIC ATOMS
17 1 2 3 4 5 6 7 8 9 \
10 11 12 13 14 15 16 17 
@<TRIPOS>MOLECULE
A:I73301
    57    60     1     0     1
SMALL
NO_CHARGES
****
Generated from the CSD

@<TRIPOS>ATOM
     1 O1      26.0856   9.6144  58.4149   O.3       1 I73301   0.0000
     2 C42     26.0529   9.0095  59.7630   C.3       1 I73301   0.0000
     3 C43     25.0965   7.8199  59.7262   C.3       1 I73301   0.0000
     4 N44     23.7217   8.2918  59.4627   N.3       1 I73301   0.0000
     5 C45     23.1640   9.2809  60.3834   C.3       1 I73301   0.0000
     6 C46     24.1573  10.4582  60.5752   C.3       1 I73301   0.0000
     7 C41     25.6074  10.0258  60.8415   C.3       1 I73301   0.0000
     8 C40     25.6644   9.5291  62.3038   C.3       1 I73301   0.0000
     9 N18     26.9950   9.2916  62.8768   N.pl3     1 I73301   0.0000
    10 C5      27.3600   8.1169  63.4715   C.2       1 I73301   0.0000
    11 C4      28.5961   7.9595  64.1200   C.2       1 I73301   0.0000
    12 C3      29.0058   6.7367  64.7410   C.2       1 I73301   0.0000
    13 N2      28.1496   5.7054  64.7092   N.pl3     1 I73301   0.0000
    14 N1      28.2986   4.3938  65.2338   N.2       1 I73301   0.0000
    15 C9      27.1437   3.7195  64.8877   C.2       1 I73301   0.0000
    16 C8      26.3643   4.6946  64.2256   C.2       1 I73301   0.0000
    17 C26     25.0714   4.7447  63.4698   C.2       1 I73301   0.0000
    18 C28     25.0128   3.8796  62.2005   C.3       1 I73301   0.0000
    19 C27     23.7551   5.0945  64.1620   C.3       1 I73301   0.0000
    20 C7      27.0006   5.8903  64.0804   C.2       1 I73301   0.0000
    21 N6      26.5354   7.0375  63.4580   N.2       1 I73301   0.0000
    22 N10     30.2123   6.6323  65.3532   N.2       1 I73301   0.0000
    23 C11     31.2918   7.5772  64.9575   C.3       1 I73301   0.0000
    24 C12     31.4152   8.7290  65.9598   C.ar      1 I73301   0.0000
    25 C17     31.1483  10.0475  65.5912   C.ar      1 I73301   0.0000
    26 C16     31.2490  11.1011  66.5302   C.ar      1 I73301   0.0000
    27 C15     31.6136  10.8234  67.8699   C.ar      1 I73301   0.0000
    28 C14     31.8654   9.4959  68.2246   C.ar      1 I73301   0.0000
    29 C13     31.7639   8.4723  67.2774   C.ar      1 I73301   0.0000
    30 H1      31.6955  11.6234  68.6043   H         1 I73301   0.0000
    31 H2      32.1438   9.2557  69.2497   H         1 I73301   0.0000
    32 H3      31.9640   7.4462  67.5824   H         1 I73301   0.0000
    33 H4      23.8270   6.0904  64.5967   H         1 I73301   0.0000
    34 H5      22.9454   5.0738  63.4341   H         1 I73301   0.0000
    35 H6      23.5546   4.3687  64.9487   H         1 I73301   0.0000
    36 H7      31.0637   7.9852  63.9739   H         1 I73301   0.0000
    37 H8      32.2376   7.0389  64.9167   H         1 I73301   0.0000
    38 H9      30.8581  10.2693  64.5653   H         1 I73301   0.0000
    39 H10     31.0462  12.1258  66.2225   H         1 I73301   0.0000
    40 H11     25.1736   2.8356  62.4650   H         1 I73301   0.0000
    41 H12     24.0361   3.9890  61.7314   H         1 I73301   0.0000
    42 H13     25.7872   4.2015  61.5058   H         1 I73301   0.0000
    43 H14     29.2761   8.8096  64.1519   H         1 I73301   0.0000
    44 H15     26.8922   2.6777  65.0806   H         1 I73301   0.0000
    45 H16     25.1242   7.3039  60.6848   H         1 I73301   0.0000
    46 H17     25.4014   7.1350  58.9364   H         1 I73301   0.0000
    47 H18     23.8189  11.0555  61.4206   H         1 I73301   0.0000
    48 H19     24.1433  11.0667  59.6721   H         1 I73301   0.0000
    49 H20     27.6797  10.0393  62.8287   H         1 I73301   0.0000
    50 H21     25.1134   8.5911  62.3536   H         1 I73301   0.0000
    51 H22     25.1685  10.2748  62.9234   H         1 I73301   0.0000
    52 H23     23.1121   7.4804  59.4810   H         1 I73301   0.0000
    53 H24     22.9757   8.8091  61.3467   H         1 I73301   0.0000
    54 H25     22.2285   9.6626  59.9771   H         1 I73301   0.0000
    55 H26     25.1732   9.9166  58.1655   H         1 I73301   0.0000
    56 H27     26.2429  10.9063  60.7588   H         1 I73301   0.0000
    57 H28     27.0506   8.6500  60.0105   H         1 I73301   0.0000
@<TRIPOS>BOND
     1     1     2    1
     2     2     3    1
     3     2     7    1
     4     3     4    1
     5     4     5    1
     6     5     6    1
     7     6     7    1
     8     7     8    1
     9     8     9    1
    10     9    10    1
    11    10    11    2
    12    10    21    1
    13    11    12    1
    14    12    13    1
    15    12    22    2
    16    13    14    1
    17    13    20    1
    18    14    15    2
    19    15    16    1
    20    16    17    2
    21    16    20    1
    22    17    18    1
    23    17    19    1
    24    20    21    2
    25    22    23    1
    26    23    24    1
    27    24    25   ar
    28    24    29   ar
    29    25    26   ar
    30    26    27   ar
    31    27    28   ar
    32    28    29   ar
    33    27    30    1
    34    28    31    1
    35    29    32    1
    36    19    33    1
    37    19    34    1
    38    19    35    1
    39    23    36    1
    40    23    37    1
    41    25    38    1
    42    26    39    1
    43    18    40    1
    44    18    41    1
    45    18    42    1
    46    11    43    1
    47    15    44    1
    48     3    45    1
    49     3    46    1
    50     6    47    1
    51     6    48    1
    52     9    49    1
    53     8    50    1
    54     8    51    1
    55     4    52    1
    56     5    53    1
    57     5    54    1
    58     1    55    1
    59     7    56    1
    60     2    57    1
@<TRIPOS>SUBSTRUCTURE
     1 I73301      1 GROUP             0 A     I73     0  
@<TRIPOS>SET
CCDC_LIGAND STATIC ATOMS
57 1 2 3 4 5 6 7 8 9 \
10 11 12 13 14 15 16 17 18 19 \
20 21 22 23 24 25 26 27 28 29 \
30 31 32 33 34 35 36 37 38 39 \
40 41 42 43 44 45 46 47 48 49 \
50 51 52 53 54 55 56 57 
@<TRIPOS>MOLECULE
A:TIY311
    24    25     1     0     1
SMALL
NO_CHARGES
****
Generated from the CSD

@<TRIPOS>ATOM
     1 C13     28.0708   6.1700  64.6702   C.ar      1 TIY311   0.0000
     2 C15     27.6395   4.8342  64.7057   C.ar      1 TIY311   0.0000
     3 O01     26.2742   3.1318  64.0795   O.3       1 TIY311   0.0000
     4 C02     26.5550   4.4440  63.9201   C.ar      1 TIY311   0.0000
     5 C03     25.8390   5.3425  63.0491   C.ar      1 TIY311   0.0000
     6 C04     26.2988   6.7070  63.0174   C.ar      1 TIY311   0.0000
     7 C05     25.7697   7.7853  62.2600   C.2       1 TIY311   0.0000
     8 C06     24.7073   7.8351  61.3543   C.2       1 TIY311   0.0000
     9 C07     23.8630   6.8047  60.9702   C.2       1 TIY311   0.0000
    10 C08     23.8731   5.4690  61.3784   C.2       1 TIY311   0.0000
    11 C09     24.7418   4.8193  62.2949   C.2       1 TIY311   0.0000
    12 O10     24.4619   3.5914  62.4252   O.2       1 TIY311   0.0000
    13 O11     22.8830   4.7495  60.7672   O.3       1 TIY311   0.0000
    14 C12     27.4077   7.0806  63.8381   C.ar      1 TIY311   0.0000
    15 O14     29.1181   6.5936  65.4107   O.3       1 TIY311   0.0000
    16 O16     28.2384   3.8974  65.4875   O.3       1 TIY311   0.0000
    17 H1      29.9321   6.0863  65.1534   H         1 TIY311   0.0000
    18 H2      28.1765   4.1722  66.4397   H         1 TIY311   0.0000
    19 H3      23.0126   4.7779  59.7831   H         1 TIY311   0.0000
    20 H4      23.0878   7.0728  60.2540   H         1 TIY311   0.0000
    21 H5      26.0529   2.9539  65.0310   H         1 TIY311   0.0000
    22 H6      26.2792   8.7359  62.4110   H         1 TIY311   0.0000
    23 H7      24.5190   8.8033  60.8928   H         1 TIY311   0.0000
    24 H8      27.7505   8.1140  63.8154   H         1 TIY311   0.0000
@<TRIPOS>BOND
     1     1     2   ar
     2     1    14   ar
     3     1    15    1
     4     2     4   ar
     5     2    16    1
     6     3     4    1
     7     4     5   ar
     8     5     6   ar
     9     5    11    1
    10     6     7    1
    11     6    14   ar
    12     7     8    2
    13     8     9    1
    14     9    10    2
    15    10    11    1
    16    10    13    1
    17    11    12    2
    18    15    17    1
    19    16    18    1
    20    13    19    1
    21     9    20    1
    22     3    21    1
    23     7    22    1
    24     8    23    1
    25    14    24    1
@<TRIPOS>SUBSTRUCTURE
     1 TIY311      1 GROUP             0 A     TIY     0  
@<TRIPOS>SET
CCDC_LIGAND STATIC ATOMS
24 1 2 3 4 5 6 7 8 9 \
10 11 12 13 14 15 16 17 18 19 \
20 21 22 23 24 
@<TRIPOS>MOLECULE
A:2KD301
    57    60     1     0     1
SMALL
NO_CHARGES
****
Generated from the CSD

@<TRIPOS>ATOM
     1 N01     23.0339   3.6935  60.3943   N.ar      1 2KD301   0.0000
     2 C02     22.2854   4.7963  60.2905   C.ar      1 2KD301   0.0000
     3 C03     21.0730   4.7602  59.6002   C.ar      1 2KD301   0.0000
     4 C04     20.6405   3.5692  59.0066   C.ar      1 2KD301   0.0000
     5 C05     21.4457   2.4150  59.1382   C.ar      1 2KD301   0.0000
     6 C06     22.6527   2.5235  59.8615   C.ar      1 2KD301   0.0000
     7 C07     21.0972   1.1614  58.6097   C.ar      1 2KD301   0.0000
     8 C08     21.9304   0.0273  58.7843   C.ar      1 2KD301   0.0000
     9 C09     23.1389   0.1791  59.4888   C.ar      1 2KD301   0.0000
    10 C10     23.4857   1.4078  60.0214   C.ar      1 2KD301   0.0000
    11 C11     22.8113   6.0653  60.8853   C.2       1 2KD301   0.0000
    12 C12     19.3114   3.5835  58.2798   C.2       1 2KD301   0.0000
    13 C13     21.5655  -1.3063  58.2363   C.ar      1 2KD301   0.0000
    14 O14     22.0139   6.9313  61.2292   O.2       1 2KD301   0.0000
    15 N15     24.1462   6.1840  61.0129   N.am      1 2KD301   0.0000
    16 C16     24.7705   7.3670  61.5656   C.3       1 2KD301   0.0000
    17 C17     24.7054   7.3271  63.1290   C.3       1 2KD301   0.0000
    18 C18     25.6023   6.1845  63.6829   C.ar      1 2KD301   0.0000
    19 C19     26.2070   7.4217  61.1027   C.2       1 2KD301   0.0000
    20 O20     26.6606   6.5607  60.3574   O.2       1 2KD301   0.0000
    21 O21     26.9107   8.4718  61.5474   O.3       1 2KD301   0.0000
    22 C22     28.2822   8.5240  61.0871   C.3       1 2KD301   0.0000
    23 O23     18.2984   4.0358  58.8767   O.2       1 2KD301   0.0000
    24 O24     19.2286   3.1241  57.1086   O.3       1 2KD301   0.0000
    25 C25     20.9599  -1.4160  56.9747   C.ar      1 2KD301   0.0000
    26 C26     20.6275  -2.6783  56.4505   C.ar      1 2KD301   0.0000
    27 C27     20.9058  -3.8440  57.1835   C.ar      1 2KD301   0.0000
    28 C28     21.5133  -3.7409  58.4304   C.ar      1 2KD301   0.0000
    29 C29     21.8427  -2.4797  58.9546   C.ar      1 2KD301   0.0000
    30 C30     25.1330   4.8519  63.6810   C.ar      1 2KD301   0.0000
    31 C31     25.9565   3.8097  64.1621   C.ar      1 2KD301   0.0000
    32 C32     27.2069   4.1005  64.7364   C.ar      1 2KD301   0.0000
    33 C33     27.6287   5.4408  64.8354   C.ar      1 2KD301   0.0000
    34 C34     26.8667   6.4693  64.2534   C.ar      1 2KD301   0.0000
    35 CL      19.8919  -2.7935  54.8706   Cl        1 2KD301   0.0000
    36 O36     28.0262   3.0453  65.1710   O.3       1 2KD301   0.0000
    37 H1      27.2502   7.4885  64.2413   H         1 2KD301   0.0000
    38 H2      28.5493   5.6815  65.3650   H         1 2KD301   0.0000
    39 H3      28.2399   2.4540  64.4024   H         1 2KD301   0.0000
    40 H4      24.1347   4.6277  63.3081   H         1 2KD301   0.0000
    41 H5      25.6215   2.7762  64.0879   H         1 2KD301   0.0000
    42 H6      21.7345  -4.6409  59.0023   H         1 2KD301   0.0000
    43 H7      20.6477  -4.8213  56.7783   H         1 2KD301   0.0000
    44 H8      22.3195  -2.4117  59.9313   H         1 2KD301   0.0000
    45 H9      20.7460  -0.5176  56.3977   H         1 2KD301   0.0000
    46 H10     19.4914   2.1665  57.1094   H         1 2KD301   0.0000
    47 H11     23.6758   7.1574  63.4405   H         1 2KD301   0.0000
    48 H12     25.0525   8.2797  63.5265   H         1 2KD301   0.0000
    49 H13     28.2984   8.5740  59.9993   H         1 2KD301   0.0000
    50 H14     28.7698   9.4066  61.4983   H         1 2KD301   0.0000
    51 H15     28.8102   7.6306  61.4172   H         1 2KD301   0.0000
    52 H16     20.4634   5.6593  59.5234   H         1 2KD301   0.0000
    53 H17     20.1666   1.0579  58.0536   H         1 2KD301   0.0000
    54 H18     24.7364   5.4156  60.7104   H         1 2KD301   0.0000
    55 H19     23.8038  -0.6741  59.6154   H         1 2KD301   0.0000
    56 H20     24.4193   1.5096  60.5727   H         1 2KD301   0.0000
    57 H21     24.2444   8.2506  61.2072   H         1 2KD301   0.0000
@<TRIPOS>BOND
     1     1     2   ar
     2     1     6   ar
     3     2     3   ar
     4     2    11    1
     5     3     4   ar
     6     4     5   ar
     7     4    12    1
     8     5     6   ar
     9     5     7   ar
    10     6    10   ar
    11     7     8   ar
    12     8     9   ar
    13     8    13    1
    14     9    10   ar
    15    11    14    2
    16    11    15   am
    17    12    23    2
    18    12    24    1
    19    13    25   ar
    20    13    29   ar
    21    15    16    1
    22    16    17    1
    23    16    19    1
    24    17    18    1
    25    18    30   ar
    26    18    34   ar
    27    19    20    2
    28    19    21    1
    29    21    22    1
    30    25    26   ar
    31    26    27   ar
    32    26    35    1
    33    27    28   ar
    34    28    29   ar
    35    30    31   ar
    36    31    32   ar
    37    32    33   ar
    38    32    36    1
    39    33    34   ar
    40    34    37    1
    41    33    38    1
    42    36    39    1
    43    30    40    1
    44    31    41    1
    45    28    42    1
    46    27    43    1
    47    29    44    1
    48    25    45    1
    49    24    46    1
    50    17    47    1
    51    17    48    1
    52    22    49    1
    53    22    50    1
    54    22    51    1
    55     3    52    1
    56     7    53    1
    57    15    54    1
    58     9    55    1
    59    10    56    1
    60    16    57    1
@<TRIPOS>SUBSTRUCTURE
     1 2KD301      1 GROUP             0 A     2KD     0  
@<TRIPOS>SET
CCDC_LIGAND STATIC ATOMS
57 1 2 3 4 5 6 7 8 9 \
10 11 12 13 14 15 16 17 18 19 \
20 21 22 23 24 25 26 27 28 29 \
30 31 32 33 34 35 36 37 38 39 \
40 41 42 43 44 45 46 47 48 49 \
50 51 52 53 54 55 56 57 
@<TRIPOS>MOLECULE
A:4CK300
    31    33     1     0     1
SMALL
NO_CHARGES
****
Generated from the CSD

@<TRIPOS>ATOM
     1 N1      27.4758   3.5093  65.0505   N.2       1 4CK300   0.0000
     2 N2      28.4753   4.0915  65.5274   N.2       1 4CK300   0.0000
     3 N3      29.4286   6.2306  65.4648   N.2       1 4CK300   0.0000
     4 OAA     34.1111  10.6704  68.4411   O.3       1 4CK300   0.0000
     5 OAB     29.0071   7.8975  63.9739   O.2       1 4CK300   0.0000
     6 OAC     34.5627  11.4940  66.4441   O.2       1 4CK300   0.0000
     7 CAD     32.5193   9.9529  65.2300   C.ar      1 4CK300   0.0000
     8 CAE     32.1962   8.9028  67.3913   C.ar      1 4CK300   0.0000
     9 CAF     31.5174   9.1488  64.6752   C.ar      1 4CK300   0.0000
    10 CAG     31.1834   8.1118  66.8454   C.ar      1 4CK300   0.0000
    11 CAH     27.3473   5.5827  64.3608   C.2       1 4CK300   0.0000
    12 CAI     24.9652   4.5565  62.3692   C.3       1 4CK300   0.0000
    13 CAJ     24.2669   4.9485  63.6750   C.3       1 4CK300   0.0000
    14 CAN     33.9440  10.7224  67.2034   C.2       1 4CK300   0.0000
    15 CAO     29.6927   7.4084  64.8723   C.2       1 4CK300   0.0000
    16 CAP     32.8601   9.8238  66.5826   C.ar      1 4CK300   0.0000
    17 CAQ     30.8375   8.2258  65.4860   C.ar      1 4CK300   0.0000
    18 CAR     28.4465   5.3747  65.1277   C.2       1 4CK300   0.0000
    19 CAS     26.7476   4.3832  64.3303   C.2       1 4CK300   0.0000
    20 CAT     25.4213   3.9329  63.6948   C.3       1 4CK300   0.0000
    21 H1      33.0361  10.6820  64.6077   H         1 4CK300   0.0000
    22 H2      32.4656   8.8009  68.4415   H         1 4CK300   0.0000
    23 H3      31.2662   9.2385  63.6194   H         1 4CK300   0.0000
    24 H4      30.6558   7.3995  67.4780   H         1 4CK300   0.0000
    25 H5      27.0268   6.5069  63.8821   H         1 4CK300   0.0000
    26 H6      25.6044   5.2744  61.8574   H         1 4CK300   0.0000
    27 H7      24.4413   3.9479  61.6337   H         1 4CK300   0.0000
    28 H8      23.2473   4.6178  63.8678   H         1 4CK300   0.0000
    29 H9      24.4104   5.9444  64.0916   H         1 4CK300   0.0000
    30 H10     25.1417   2.8929  63.8562   H         1 4CK300   0.0000
    31 H11     33.9028  11.5553  68.8407   H         1 4CK300   0.0000
@<TRIPOS>BOND
     1     1     2    2
     2     1    19    1
     3     2    18    1
     4     3    15    1
     5     3    18    2
     6     4    14    1
     7     5    15    2
     8     6    14    2
     9     7     9   ar
    10     7    16   ar
    11     8    10   ar
    12     8    16   ar
    13     9    17   ar
    14    10    17   ar
    15    11    18    1
    16    11    19    2
    17    12    13    1
    18    12    20    1
    19    13    20    1
    20    14    16    1
    21    15    17    1
    22    19    20    1
    23     7    21    1
    24     8    22    1
    25     9    23    1
    26    10    24    1
    27    11    25    1
    28    12    26    1
    29    12    27    1
    30    13    28    1
    31    13    29    1
    32    20    30    1
    33     4    31    1
@<TRIPOS>SUBSTRUCTURE
     1 4CK300      1 GROUP             0 A     4CK     0  
@<TRIPOS>SET
CCDC_LIGAND STATIC ATOMS
31 1 2 3 4 5 6 7 8 9 \
10 11 12 13 14 15 16 17 18 19 \
20 21 22 23 24 25 26 27 28 29 \
30 31 
@<TRIPOS>MOLECULE
A:CK2300
    24    25     1     0     1
SMALL
NO_CHARGES
****
Generated from the CSD

@<TRIPOS>ATOM
     1 C7A     25.8889  11.5486  61.7749   C.3       1 CK2300   0.0000
     2 C3A     26.2372  10.1127  62.1103   C.2       1 CK2300   0.0000
     3 S4A     26.7676   9.5244  63.6270   S.3       1 CK2300   0.0000
     4 N2A     26.1395   9.1521  61.2147   N.2       1 CK2300   0.0000
     5 C1A     26.4586   7.9107  61.6851   C.2       1 CK2300   0.0000
     6 C6A     26.4005   6.8400  60.7018   C.3       1 CK2300   0.0000
     7 C5A     26.8315   7.8873  63.0416   C.2       1 CK2300   0.0000
     8 C4      27.2288   6.7521  63.8096   C.ar      1 CK2300   0.0000
     9 N3      26.6618   5.5319  63.6277   N.ar      1 CK2300   0.0000
    10 C5      28.2302   6.8789  64.7882   C.ar      1 CK2300   0.0000
    11 C6      28.6128   5.8051  65.5835   C.ar      1 CK2300   0.0000
    12 N1      28.0573   4.6105  65.3624   N.ar      1 CK2300   0.0000
    13 C2      27.0587   4.4991  64.4357   C.ar      1 CK2300   0.0000
    14 N7      26.4846   3.3617  64.2171   N.pl3     1 CK2300   0.0000
    15 H1      26.7305   2.5528  64.7787   H         1 CK2300   0.0000
    16 H2      25.7879   3.2775  63.4837   H         1 CK2300   0.0000
    17 H3      26.7600  12.1813  61.9388   H         1 CK2300   0.0000
    18 H4      25.5840  11.6139  60.7314   H         1 CK2300   0.0000
    19 H5      25.0723  11.8827  62.4132   H         1 CK2300   0.0000
    20 H6      27.0972   7.0524  59.8922   H         1 CK2300   0.0000
    21 H7      26.6707   5.8972  61.1752   H         1 CK2300   0.0000
    22 H8      25.3901   6.7688  60.3018   H         1 CK2300   0.0000
    23 H9      28.7183   7.8425  64.9265   H         1 CK2300   0.0000
    24 H10     29.3521   5.9352  66.3724   H         1 CK2300   0.0000
@<TRIPOS>BOND
     1     1     2    1
     2     2     3    1
     3     2     4    2
     4     3     7    1
     5     4     5    1
     6     5     6    1
     7     5     7    2
     8     7     8    1
     9     8     9   ar
    10     8    10   ar
    11     9    13   ar
    12    10    11   ar
    13    11    12   ar
    14    12    13   ar
    15    13    14    1
    16    14    15    1
    17    14    16    1
    18     1    17    1
    19     1    18    1
    20     1    19    1
    21     6    20    1
    22     6    21    1
    23     6    22    1
    24    10    23    1
    25    11    24    1
@<TRIPOS>SUBSTRUCTURE
     1 CK2300      1 GROUP             0 A     CK2     0  
@<TRIPOS>SET
CCDC_LIGAND STATIC ATOMS
24 1 2 3 4 5 6 7 8 9 \
10 11 12 13 14 15 16 17 18 19 \
20 21 22 23 24 
@<TRIPOS>MOLECULE
A:48K301
    49    51     1     0     1
SMALL
NO_CHARGES
****
Generated from the CSD

@<TRIPOS>ATOM
     1 S       33.6101  10.9161  65.0126   S.o2      1 48K301   0.0000
     2 C1      30.8012  13.6641  69.0850   C.3       1 48K301   0.0000
     3 O1      34.3371  10.6918  63.7988   O.2       1 48K301   0.0000
     4 C2      32.3199  14.8762  67.6032   C.3       1 48K301   0.0000
     5 N2      32.9340  12.3786  64.8916   N.pl3     1 48K301   0.0000
     6 O2      34.3066  10.8717  66.2625   O.2       1 48K301   0.0000
     7 C3      31.5536  12.6003  66.9844   C.3       1 48K301   0.0000
     8 N3      29.3483   6.8035  65.0963   N.pl3     1 48K301   0.0000
     9 O3      28.5465   4.2445  65.8735   O.2       1 48K301   0.0000
    10 C4      31.6262  12.7150  65.4715   C.3       1 48K301   0.0000
    11 N4      26.7318   3.5244  64.5742   N.am      1 48K301   0.0000
    12 C5      32.3207   9.7289  65.0627   C.ar      1 48K301   0.0000
    13 C6      32.1792   8.9150  66.1740   C.ar      1 48K301   0.0000
    14 C7      31.2113   7.9278  66.1701   C.ar      1 48K301   0.0000
    15 C8      30.3541   7.7966  65.0879   C.ar      1 48K301   0.0000
    16 C9      28.3359   6.7189  64.2481   C.2       1 48K301   0.0000
    17 C10     27.4706   5.6525  64.1946   C.2       1 48K301   0.0000
    18 C11     27.6749   4.3958  65.0027   C.2       1 48K301   0.0000
    19 C12     25.9053   4.1025  63.5878   C.ar      1 48K301   0.0000
    20 C13     24.8580   3.5383  62.8803   C.ar      1 48K301   0.0000
    21 C14     24.1531   4.3367  61.9823   C.ar      1 48K301   0.0000
    22 C15     24.5154   5.6712  61.7848   C.ar      1 48K301   0.0000
    23 C16     25.6153   6.2123  62.4460   C.ar      1 48K301   0.0000
    24 C17     26.3223   5.4300  63.3579   C.ar      1 48K301   0.0000
    25 C18     30.5166   8.6175  63.9784   C.ar      1 48K301   0.0000
    26 C19     31.5014   9.5827  63.9632   C.ar      1 48K301   0.0000
    27 N1      31.2086  13.8871  67.6723   N.3       1 48K301   0.0000
    28 H1      33.4383  13.1021  64.3892   H         1 48K301   0.0000
    29 H2      32.5227  12.2643  67.3502   H         1 48K301   0.0000
    30 H3      30.7943  11.8615  67.2367   H         1 48K301   0.0000
    31 H4      29.4079   6.0915  65.8173   H         1 48K301   0.0000
    32 H5      30.8830  12.0433  65.0444   H         1 48K301   0.0000
    33 H6      31.3877  13.7416  65.1974   H         1 48K301   0.0000
    34 H7      26.6319   2.5751  64.9191   H         1 48K301   0.0000
    35 H8      30.4665  14.6050  69.5192   H         1 48K301   0.0000
    36 H9      29.9890  12.9395  69.1185   H         1 48K301   0.0000
    37 H10     31.6500  13.2843  69.6519   H         1 48K301   0.0000
    38 H11     33.1748  14.5014  68.1641   H         1 48K301   0.0000
    39 H12     32.6063  15.0283  66.5636   H         1 48K301   0.0000
    40 H13     31.9913  15.8220  68.0313   H         1 48K301   0.0000
    41 H14     24.5907   2.4923  63.0225   H         1 48K301   0.0000
    42 H15     23.3133   3.9173  61.4302   H         1 48K301   0.0000
    43 H16     23.9326   6.2941  61.1078   H         1 48K301   0.0000
    44 H17     25.9209   7.2394  62.2520   H         1 48K301   0.0000
    45 H18     29.8625   8.4979  63.1159   H         1 48K301   0.0000
    46 H19     31.6307  10.2229  63.0918   H         1 48K301   0.0000
    47 H20     32.8232   9.0511  67.0416   H         1 48K301   0.0000
    48 H21     31.1218   7.2516  67.0190   H         1 48K301   0.0000
    49 H22     28.1794   7.5419  63.5524   H         1 48K301   0.0000
@<TRIPOS>BOND
     1     1     3    2
     2     1     5    1
     3     1     6    2
     4     1    12    1
     5     2    27    1
     6     4    27    1
     7     5    10    1
     8     7    10    1
     9     7    27    1
    10     8    15    1
    11     8    16    1
    12     9    18    2
    13    11    18   am
    14    11    19    1
    15    12    13   ar
    16    12    26   ar
    17    13    14   ar
    18    14    15   ar
    19    15    25   ar
    20    16    17    2
    21    17    18    1
    22    17    24    1
    23    19    20   ar
    24    19    24   ar
    25    20    21   ar
    26    21    22   ar
    27    22    23   ar
    28    23    24   ar
    29    25    26   ar
    30     5    28    1
    31     7    29    1
    32     7    30    1
    33     8    31    1
    34    10    32    1
    35    10    33    1
    36    11    34    1
    37     2    35    1
    38     2    36    1
    39     2    37    1
    40     4    38    1
    41     4    39    1
    42     4    40    1
    43    20    41    1
    44    21    42    1
    45    22    43    1
    46    23    44    1
    47    25    45    1
    48    26    46    1
    49    13    47    1
    50    14    48    1
    51    16    49    1
@<TRIPOS>SUBSTRUCTURE
     1 48K301      1 GROUP             0 A     48K     0  
@<TRIPOS>SET
CCDC_LIGAND STATIC ATOMS
49 1 2 3 4 5 6 7 8 9 \
10 11 12 13 14 15 16 17 18 19 \
20 21 22 23 24 25 26 27 28 29 \
30 31 32 33 34 35 36 37 38 39 \
40 41 42 43 44 45 46 47 48 49 
@<TRIPOS>MOLECULE
A:45K301
    39    43     1     0     1
SMALL
NO_CHARGES
****
Generated from the CSD

@<TRIPOS>ATOM
     1 N1      24.3166   7.0467  61.0510   N.2       1 45K301   0.0000
     2 N2      29.6001   6.7449  65.3222   N.pl3     1 45K301   0.0000
     3 N3      26.7924   3.7189  64.6172   N.am      1 45K301   0.0000
     4 OAA     28.6218   4.2568  65.8707   O.2       1 45K301   0.0000
     5 OAB     34.7080  10.2662  63.8675   O.2       1 45K301   0.0000
     6 OAC     34.1193  12.6972  64.2409   O.2       1 45K301   0.0000
     7 CAD     28.5132   6.8554  64.5476   C.2       1 45K301   0.0000
     8 CAE     31.2321   7.7139  66.7350   C.ar      1 45K301   0.0000
     9 CAF     32.1783   8.7106  67.0004   C.ar      1 45K301   0.0000
    10 CAG     24.2968   4.8129  62.0763   C.ar      1 45K301   0.0000
    11 CAH     24.9099   3.9667  63.0014   C.ar      1 45K301   0.0000
    12 CAI     24.9704   8.2219  61.0113   C.2       1 45K301   0.0000
    13 CAJ     30.7641   8.7128  64.6026   C.ar      1 45K301   0.0000
    14 CAK     33.4572  10.8838  66.1944   C.3       1 45K301   0.0000
    15 CAL     32.0520  10.9205  63.9201   C.3       1 45K301   0.0000
    16 SAP     26.2865   8.1060  62.0767   S.3       1 45K301   0.0000
    17 CAQ     30.4739   7.7386  65.5576   C.ar      1 45K301   0.0000
    18 CAR     32.4351   9.7233  66.0693   C.ar      1 45K301   0.0000
    19 CAS     31.6795   9.7456  64.8629   C.ar      1 45K301   0.0000
    20 CAT     27.7208   4.5632  65.0808   C.2       1 45K301   0.0000
    21 CAU     27.6656   5.7563  64.3611   C.2       1 45K301   0.0000
    22 CAV     24.7898   6.1039  61.8794   C.ar      1 45K301   0.0000
    23 CAW     26.0289   4.3794  63.7318   C.ar      1 45K301   0.0000
    24 CAX     25.9445   6.5123  62.5933   C.ar      1 45K301   0.0000
    25 CAY     26.5645   5.6589  63.5114   C.ar      1 45K301   0.0000
    26 SAZ     33.7415  11.2555  64.4331   S.o2      1 45K301   0.0000
    27 H1      23.4345   4.4663  61.5086   H         1 45K301   0.0000
    28 H2      29.7763   5.8475  65.7625   H         1 45K301   0.0000
    29 H3      26.6839   2.7468  64.8881   H         1 45K301   0.0000
    30 H4      28.2878   7.8033  64.0610   H         1 45K301   0.0000
    31 H5      31.0834   6.9090  67.4533   H         1 45K301   0.0000
    32 H6      32.7220   8.6978  67.9439   H         1 45K301   0.0000
    33 H7      24.5094   2.9661  63.1574   H         1 45K301   0.0000
    34 H8      24.7042   9.0879  60.4070   H         1 45K301   0.0000
    35 H9      30.2697   8.6717  63.6332   H         1 45K301   0.0000
    36 H10     34.3717  10.5638  66.6917   H         1 45K301   0.0000
    37 H11     33.0357  11.7371  66.7237   H         1 45K301   0.0000
    38 H12     31.4069  11.7828  64.0826   H         1 45K301   0.0000
    39 H13     32.0040  10.6234  62.8735   H         1 45K301   0.0000
@<TRIPOS>BOND
     1     1    12    2
     2     1    22    1
     3     2     7    1
     4     2    17    1
     5     3    20   am
     6     3    23    1
     7     4    20    2
     8     5    26    2
     9     6    26    2
    10     7    21    2
    11     8     9   ar
    12     8    17   ar
    13     9    18   ar
    14    10    11   ar
    15    10    22   ar
    16    11    23   ar
    17    12    16    1
    18    13    17   ar
    19    13    19   ar
    20    14    18    1
    21    14    26    1
    22    15    19    1
    23    15    26    1
    24    16    24    1
    25    18    19   ar
    26    20    21    1
    27    21    25    1
    28    22    24   ar
    29    23    25   ar
    30    24    25   ar
    31    10    27    1
    32     2    28    1
    33     3    29    1
    34     7    30    1
    35     8    31    1
    36     9    32    1
    37    11    33    1
    38    12    34    1
    39    13    35    1
    40    14    36    1
    41    14    37    1
    42    15    38    1
    43    15    39    1
@<TRIPOS>SUBSTRUCTURE
     1 45K301      1 GROUP             0 A     45K     0  
@<TRIPOS>SET
CCDC_LIGAND STATIC ATOMS
39 1 2 3 4 5 6 7 8 9 \
10 11 12 13 14 15 16 17 18 19 \
20 21 22 23 24 25 26 27 28 29 \
30 31 32 33 34 35 36 37 38 39 
@<TRIPOS>MOLECULE
A:628299
    44    47     1     0     1
SMALL
NO_CHARGES
****
Generated from the CSD

@<TRIPOS>ATOM
     1 C1      25.5654   4.5441  62.7723   C.2       1 628299   0.0000
     2 C2      26.2396   5.6307  63.3775   C.2       1 628299   0.0000
     3 N3      27.2062   5.4235  64.2518   N.pl3     1 628299   0.0000
     4 C4      27.5908   4.1769  64.6432   C.2       1 628299   0.0000
     5 C5      26.9865   2.9971  64.1158   C.2       1 628299   0.0000
     6 C6      25.9393   3.2073  63.1609   C.2       1 628299   0.0000
     7 C10     27.8923   6.3837  64.8750   C.2       1 628299   0.0000
     8 C11     28.7801   5.6344  65.6800   C.2       1 628299   0.0000
     9 N12     28.6193   4.2765  65.5538   N.2       1 628299   0.0000
    10 S1      33.6878  10.6286  64.8773   S.o2      1 628299   0.0000
    11 C14     32.5020   9.4005  65.2695   C.ar      1 628299   0.0000
    12 C15     32.4255   8.9558  66.6282   C.ar      1 628299   0.0000
    13 C16     31.4940   7.9756  66.9876   C.ar      1 628299   0.0000
    14 C17     30.6272   7.4302  65.9966   C.ar      1 628299   0.0000
    15 C18     30.7035   7.8794  64.6148   C.ar      1 628299   0.0000
    16 C19     31.6497   8.8745  64.2469   C.ar      1 628299   0.0000
    17 C23     24.5000   4.8067  61.7603   C.2       1 628299   0.0000
    18 C24     24.3089   6.2290  61.2402   C.ar      1 628299   0.0000
    19 C25     25.3120   6.8989  60.3726   C.ar      1 628299   0.0000
    20 C26     25.0969   8.2090  59.9025   C.ar      1 628299   0.0000
    21 C27     23.9373   8.9295  60.2695   C.ar      1 628299   0.0000
    22 C28     22.9468   8.3411  61.1060   C.ar      1 628299   0.0000
    23 C29     23.1223   7.0171  61.6068   C.ar      1 628299   0.0000
    24 O33     23.7953   3.9023  61.3060   O.2       1 628299   0.0000
    25 O34     34.3221  10.9826  66.1206   O.2       1 628299   0.0000
    26 N35     29.7019   6.4395  66.4962   N.pl3     1 628299   0.0000
    27 CL2     26.4592   6.2616  59.9787   Cl        1 628299   0.0000
    28 CL1     22.1499   6.4792  62.4110   Cl        1 628299   0.0000
    29 N1      32.9425  11.9689  64.3152   N.pl3     1 628299   0.0000
    30 O1      34.5165  10.1534  63.7975   O.2       1 628299   0.0000
    31 H1      27.3013   1.9999  64.4198   H         1 628299   0.0000
    32 H2      25.4230   2.3525  62.7264   H         1 628299   0.0000
    33 H3      25.9576   6.6503  63.1188   H         1 628299   0.0000
    34 H4      33.4912  12.7778  64.0416   H         1 628299   0.0000
    35 H5      31.9306  11.9930  64.2395   H         1 628299   0.0000
    36 H6      29.6864   6.2854  67.4993   H         1 628299   0.0000
    37 H7      22.0513   8.9043  61.3647   H         1 628299   0.0000
    38 H8      23.7999   9.9474  59.9079   H         1 628299   0.0000
    39 H9      25.8332   8.6729  59.2479   H         1 628299   0.0000
    40 H10     31.7238   9.2258  63.2188   H         1 628299   0.0000
    41 H11     30.0379   7.4546  63.8648   H         1 628299   0.0000
    42 H12     31.4316   7.6315  68.0189   H         1 628299   0.0000
    43 H13     33.0903   9.3791  67.3797   H         1 628299   0.0000
    44 H14     27.7937   7.4646  64.7862   H         1 628299   0.0000
@<TRIPOS>BOND
     1     1     2    2
     2     1     6    1
     3     1    17    1
     4     2     3    1
     5     3     4    1
     6     3     7    1
     7     4     5    1
     8     4     9    2
     9     5     6    2
    10     7     8    2
    11     8     9    1
    12     8    26    1
    13    10    11    1
    14    10    25    2
    15    10    29    1
    16    10    30    2
    17    11    12   ar
    18    11    16   ar
    19    12    13   ar
    20    13    14   ar
    21    14    15   ar
    22    14    26    1
    23    15    16   ar
    24    17    18    1
    25    17    24    2
    26    18    19   ar
    27    18    23   ar
    28    19    20   ar
    29    19    27    1
    30    20    21   ar
    31    21    22   ar
    32    22    23   ar
    33    23    28    1
    34     5    31    1
    35     6    32    1
    36     2    33    1
    37    29    34    1
    38    29    35    1
    39    26    36    1
    40    22    37    1
    41    21    38    1
    42    20    39    1
    43    16    40    1
    44    15    41    1
    45    13    42    1
    46    12    43    1
    47     7    44    1
@<TRIPOS>SUBSTRUCTURE
     1 628299      1 GROUP             0 A     628     0  
@<TRIPOS>SET
CCDC_LIGAND STATIC ATOMS
44 1 2 3 4 5 6 7 8 9 \
10 11 12 13 14 15 16 17 18 19 \
20 21 22 23 24 25 26 27 28 29 \
30 31 32 33 34 35 36 37 38 39 \
40 41 42 43 44 
@<TRIPOS>MOLECULE
A:UCN410
    62    69     1     0     1
SMALL
NO_CHARGES
****
Generated from the CSD

@<TRIPOS>ATOM
     1 O37     25.2884   2.8397  62.4901   O.3       1 UCN410   0.0000
     2 C9      25.5990   3.7055  63.5884   C.3       1 UCN410   0.0000
     3 N1      26.6742   3.2459  64.4754   N.am      1 UCN410   0.0000
     4 C8      27.5120   4.2119  64.8709   C.2       1 UCN410   0.0000
     5 O5      28.4117   4.1490  65.6829   O.2       1 UCN410   0.0000
     6 C7      27.1311   5.4482  64.1775   C.ar      1 UCN410   0.0000
     7 C6      27.7012   6.7996  64.1664   C.ar      1 UCN410   0.0000
     8 C5      28.8566   7.4143  64.8275   C.ar      1 UCN410   0.0000
     9 C20     28.8639   8.8142  64.3750   C.ar      1 UCN410   0.0000
    10 C1      29.8599   9.6883  64.8294   C.ar      1 UCN410   0.0000
    11 C2      30.8260   9.1641  65.6999   C.ar      1 UCN410   0.0000
    12 C3      30.8097   7.8165  66.1115   C.ar      1 UCN410   0.0000
    13 C4      29.8272   6.9110  65.6758   C.ar      1 UCN410   0.0000
    14 N3      27.7650   9.0418  63.5122   N.pl3     1 UCN410   0.0000
    15 C19     27.0577   7.8340  63.3495   C.ar      1 UCN410   0.0000
    16 C18     25.9028   7.5743  62.5962   C.ar      1 UCN410   0.0000
    17 N2      25.1260   8.2946  61.7514   N.pl3     1 UCN410   0.0000
    18 C17     24.1056   7.6067  61.1878   C.ar      1 UCN410   0.0000
    19 C12     24.1898   6.2215  61.7100   C.ar      1 UCN410   0.0000
    20 C13     23.2764   5.1943  61.3061   C.ar      1 UCN410   0.0000
    21 C14     22.2619   5.5364  60.4142   C.ar      1 UCN410   0.0000
    22 C15     22.1404   6.8338  59.9051   C.ar      1 UCN410   0.0000
    23 C16     23.0316   7.8561  60.2555   C.ar      1 UCN410   0.0000
    24 C11     25.3588   6.1851  62.6172   C.ar      1 UCN410   0.0000
    25 C10     25.9464   5.1646  63.3764   C.ar      1 UCN410   0.0000
    26 C21     25.5000   9.7068  61.4379   C.3       1 UCN410   0.0000
    27 O4      25.9805  10.3325  62.6420   O.3       1 UCN410   0.0000
    28 C25     27.3822  10.3485  62.9604   C.3       1 UCN410   0.0000
    29 C24     28.2719  10.7161  61.7569   C.3       1 UCN410   0.0000
    30 C23     27.4304  10.8850  60.4831   C.3       1 UCN410   0.0000
    31 N4      28.1976  11.1375  59.2779   N.3       1 UCN410   0.0000
    32 C28     29.6368  11.0052  59.3683   C.3       1 UCN410   0.0000
    33 C22     26.5327   9.6596  60.3092   C.3       1 UCN410   0.0000
    34 O6      27.3127   8.4437  60.3560   O.3       1 UCN410   0.0000
    35 C27     27.1509   7.5633  59.2429   C.3       1 UCN410   0.0000
    36 C26     24.3107  10.5733  61.0197   C.3       1 UCN410   0.0000
    37 H1      29.0026   9.9243  61.5988   H         1 UCN410   0.0000
    38 H2      28.7894  11.6506  61.9686   H         1 UCN410   0.0000
    39 H3      29.8899   9.9886  59.6657   H         1 UCN410   0.0000
    40 H4      30.0828  11.2213  58.3986   H         1 UCN410   0.0000
    41 H5      30.0200  11.7060  60.1084   H         1 UCN410   0.0000
    42 H6      27.9965  12.0873  58.9817   H         1 UCN410   0.0000
    43 H7      26.7789  11.7439  60.6375   H         1 UCN410   0.0000
    44 H8      31.6136   9.8190  66.0696   H         1 UCN410   0.0000
    45 H9      31.5851   7.4646  66.7904   H         1 UCN410   0.0000
    46 H10     22.9134   8.8476  59.8210   H         1 UCN410   0.0000
    47 H11     23.3721   4.1776  61.6844   H         1 UCN410   0.0000
    48 H12     21.5464   4.7755  60.1061   H         1 UCN410   0.0000
    49 H13     21.3278   7.0558  59.2150   H         1 UCN410   0.0000
    50 H14     29.8829  10.7319  64.5192   H         1 UCN410   0.0000
    51 H15     24.7029   3.7131  64.2073   H         1 UCN410   0.0000
    52 H16     26.0206   9.7219  59.3501   H         1 UCN410   0.0000
    53 H17     27.5407  11.0977  63.7346   H         1 UCN410   0.0000
    54 H18     29.8296   5.8681  65.9893   H         1 UCN410   0.0000
    55 H19     26.7740   2.2780  64.7642   H         1 UCN410   0.0000
    56 H20     25.0040   1.9538  62.8371   H         1 UCN410   0.0000
    57 H21     23.5800  10.6006  61.8267   H         1 UCN410   0.0000
    58 H22     24.6551  11.5844  60.8075   H         1 UCN410   0.0000
    59 H23     23.8504  10.1518  60.1273   H         1 UCN410   0.0000
    60 H24     27.4408   8.0778  58.3279   H         1 UCN410   0.0000
    61 H25     27.7800   6.6850  59.3804   H         1 UCN410   0.0000
    62 H26     26.1087   7.2557  59.1719   H         1 UCN410   0.0000
@<TRIPOS>BOND
     1     1     2    1
     2     2     3    1
     3     2    25    1
     4     3     4   am
     5     4     5    2
     6     4     6    1
     7     6     7   ar
     8     6    25   ar
     9     7     8    1
    10     7    15   ar
    11     8     9   ar
    12     8    13   ar
    13     9    10   ar
    14     9    14    1
    15    10    11   ar
    16    11    12   ar
    17    12    13   ar
    18    14    15    1
    19    14    28    1
    20    15    16   ar
    21    16    17    1
    22    16    24   ar
    23    17    18    1
    24    17    26    1
    25    18    19   ar
    26    18    23   ar
    27    19    20   ar
    28    19    24    1
    29    20    21   ar
    30    21    22   ar
    31    22    23   ar
    32    24    25   ar
    33    26    27    1
    34    26    33    1
    35    26    36    1
    36    27    28    1
    37    28    29    1
    38    29    30    1
    39    30    31    1
    40    30    33    1
    41    31    32    1
    42    33    34    1
    43    34    35    1
    44    29    37    1
    45    29    38    1
    46    32    39    1
    47    32    40    1
    48    32    41    1
    49    31    42    1
    50    30    43    1
    51    11    44    1
    52    12    45    1
    53    23    46    1
    54    20    47    1
    55    21    48    1
    56    22    49    1
    57    10    50    1
    58     2    51    1
    59    33    52    1
    60    28    53    1
    61    13    54    1
    62     3    55    1
    63     1    56    1
    64    36    57    1
    65    36    58    1
    66    36    59    1
    67    35    60    1
    68    35    61    1
    69    35    62    1
@<TRIPOS>SUBSTRUCTURE
     1 UCN410      1 GROUP             0 A     UCN     0  
@<TRIPOS>SET
CCDC_LIGAND STATIC ATOMS
62 1 2 3 4 5 6 7 8 9 \
10 11 12 13 14 15 16 17 18 19 \
20 21 22 23 24 25 26 27 28 29 \
30 31 32 33 34 35 36 37 38 39 \
40 41 42 43 44 45 46 47 48 49 \
50 51 52 53 54 55 56 57 58 59 \
60 61 62 
@<TRIPOS>MOLECULE
A:MTZ1297
    46    49     1     0     1
SMALL
NO_CHARGES
****
Generated from the CSD

@<TRIPOS>ATOM
     1 C14     32.2233  11.3673  63.5595   C.3       1 MTZ1297   0.0000
     2 C15     32.1512  12.8296  64.0250   C.3       1 MTZ1297   0.0000
     3 O       31.3808  13.6724  63.1237   O.3       1 MTZ1297   0.0000
     4 C16     30.0221  13.2192  62.9160   C.3       1 MTZ1297   0.0000
     5 C17     29.9707  11.7659  62.4211   C.3       1 MTZ1297   0.0000
     6 N5      30.8558  10.8879  63.2338   N.pl3     1 MTZ1297   0.0000
     7 C11     30.3726   9.6795  63.7721   C.ar      1 MTZ1297   0.0000
     8 C12     31.1495   8.9981  64.7021   C.ar      1 MTZ1297   0.0000
     9 C13     30.6874   7.8167  65.2647   C.ar      1 MTZ1297   0.0000
    10 C10     29.1124   9.1887  63.4324   C.ar      1 MTZ1297   0.0000
    11 C9      28.6454   8.0115  64.0107   C.ar      1 MTZ1297   0.0000
    12 C8      29.4376   7.3143  64.9216   C.ar      1 MTZ1297   0.0000
    13 N4      29.0221   6.1913  65.5166   N.pl3     1 MTZ1297   0.0000
    14 C5      28.1084   5.3750  65.0025   C.ar      1 MTZ1297   0.0000
    15 N2      27.2185   5.8341  64.1059   N.ar      1 MTZ1297   0.0000
    16 N3      28.0766   4.0906  65.3915   N.ar      1 MTZ1297   0.0000
    17 C6      27.1893   3.2434  64.8866   C.ar      1 MTZ1297   0.0000
    18 C7      26.2541   3.6839  63.9559   C.ar      1 MTZ1297   0.0000
    19 C4      26.2781   5.0262  63.5801   C.ar      1 MTZ1297   0.0000
    20 C3      25.4097   5.5134  62.6026   C.2       1 MTZ1297   0.0000
    21 S       25.4325   7.0761  61.9069   S.3       1 MTZ1297   0.0000
    22 C1      24.4538   4.7743  61.9093   C.2       1 MTZ1297   0.0000
    23 C2      24.1716   3.3095  62.2338   C.3       1 MTZ1297   0.0000
    24 N1      23.7808   5.4542  60.9636   N.2       1 MTZ1297   0.0000
    25 C       24.1727   6.7286  60.8052   C.2       1 MTZ1297   0.0000
    26 N       23.6571   7.5975  59.9303   N.pl3     1 MTZ1297   0.0000
    27 H1      32.6446  10.7530  64.3539   H         1 MTZ1297   0.0000
    28 H2      32.8536  11.2981  62.6741   H         1 MTZ1297   0.0000
    29 H3      33.1641  13.2243  64.0894   H         1 MTZ1297   0.0000
    30 H4      31.6871  12.8584  65.0098   H         1 MTZ1297   0.0000
    31 H5      22.9078   7.3086  59.3095   H         1 MTZ1297   0.0000
    32 H6      24.0149   8.5464  59.8865   H         1 MTZ1297   0.0000
    33 H7      23.8416   3.2239  63.2681   H         1 MTZ1297   0.0000
    34 H8      23.3923   2.9346  61.5719   H         1 MTZ1297   0.0000
    35 H9      25.0796   2.7250  62.0930   H         1 MTZ1297   0.0000
    36 H10     25.5223   2.9981  63.5317   H         1 MTZ1297   0.0000
    37 H11     27.1930   2.2009  65.2014   H         1 MTZ1297   0.0000
    38 H12     29.4289   5.9479  66.4141   H         1 MTZ1297   0.0000
    39 H13     29.5469  13.8602  62.1748   H         1 MTZ1297   0.0000
    40 H14     29.4800  13.2895  63.8578   H         1 MTZ1297   0.0000
    41 H15     30.2951  11.7330  61.3821   H         1 MTZ1297   0.0000
    42 H16     28.9467  11.4023  62.4934   H         1 MTZ1297   0.0000
    43 H17     32.1229   9.3924  64.9899   H         1 MTZ1297   0.0000
    44 H18     31.3083   7.2794  65.9801   H         1 MTZ1297   0.0000
    45 H19     28.4938   9.7259  62.7150   H         1 MTZ1297   0.0000
    46 H20     27.6577   7.6339  63.7504   H         1 MTZ1297   0.0000
@<TRIPOS>BOND
     1     1     2    1
     2     1     6    1
     3     2     3    1
     4     3     4    1
     5     4     5    1
     6     5     6    1
     7     6     7    1
     8     7     8   ar
     9     7    10   ar
    10     8     9   ar
    11     9    12   ar
    12    10    11   ar
    13    11    12   ar
    14    12    13    1
    15    13    14    1
    16    14    15   ar
    17    14    16   ar
    18    15    19   ar
    19    16    17   ar
    20    17    18   ar
    21    18    19   ar
    22    19    20    1
    23    20    21    1
    24    20    22    2
    25    21    25    1
    26    22    23    1
    27    22    24    1
    28    24    25    2
    29    25    26    1
    30     1    27    1
    31     1    28    1
    32     2    29    1
    33     2    30    1
    34    26    31    1
    35    26    32    1
    36    23    33    1
    37    23    34    1
    38    23    35    1
    39    18    36    1
    40    17    37    1
    41    13    38    1
    42     4    39    1
    43     4    40    1
    44     5    41    1
    45     5    42    1
    46     8    43    1
    47     9    44    1
    48    10    45    1
    49    11    46    1
@<TRIPOS>SUBSTRUCTURE
     1 MTZ1297     1 GROUP             0 A     MTZ     0  
@<TRIPOS>SET
CCDC_LIGAND STATIC ATOMS
46 1 2 3 4 5 6 7 8 9 \
10 11 12 13 14 15 16 17 18 19 \
20 21 22 23 24 25 26 27 28 29 \
30 31 32 33 34 35 36 37 38 39 \
40 41 42 43 44 45 46 
@<TRIPOS>MOLECULE
A:MBP1300
    30    31     1     0     1
SMALL
NO_CHARGES
****
Generated from the CSD

@<TRIPOS>ATOM
     1 C2      28.6312   6.1773  65.5210   C.ar      1 MBP1300   0.0000
     2 C4      27.2811   4.5240  64.6830   C.ar      1 MBP1300   0.0000
     3 C5      26.5974   5.4212  63.8018   C.ar      1 MBP1300   0.0000
     4 C4'     25.8760   9.9481  62.3918   C.2       1 MBP1300   0.0000
     5 O4'     24.9482   9.5175  61.6682   O.2       1 MBP1300   0.0000
     6 C3'     25.3421  12.2780  63.0373   C.3       1 MBP1300   0.0000
     7 C2'     26.3593  11.3683  62.3790   C.3       1 MBP1300   0.0000
     8 C12     26.6839  11.8155  60.9676   C.3       1 MBP1300   0.0000
     9 N9      26.6703   3.3698  64.4119   N.pl3     1 MBP1300   0.0000
    10 N3      28.2998   4.8909  65.4938   N.ar      1 MBP1300   0.0000
    11 N2      29.6339   6.5511  66.3276   N.pl3     1 MBP1300   0.0000
    12 N1      28.0081   7.0875  64.7129   N.ar      1 MBP1300   0.0000
    13 C6      26.9952   6.8059  63.9191   C.ar      1 MBP1300   0.0000
    14 O6      26.4158   7.7309  63.1600   O.3       1 MBP1300   0.0000
    15 C60     26.6413   9.0983  63.3688   C.3       1 MBP1300   0.0000
    16 N7      25.6500   4.7629  63.1070   N.2       1 MBP1300   0.0000
    17 C8      25.7147   3.5250  63.5069   C.2       1 MBP1300   0.0000
    18 H1      25.1890  11.9647  64.0690   H         1 MBP1300   0.0000
    19 H2      25.7074  13.3038  63.0199   H         1 MBP1300   0.0000
    20 H3      24.3988  12.2194  62.4964   H         1 MBP1300   0.0000
    21 H4      27.2769  11.4145  62.9636   H         1 MBP1300   0.0000
    22 H5      25.7902  11.7439  60.3495   H         1 MBP1300   0.0000
    23 H6      27.0318  12.8473  60.9846   H         1 MBP1300   0.0000
    24 H7      27.4631  11.1765  60.5545   H         1 MBP1300   0.0000
    25 H8      26.3293   9.3563  64.3797   H         1 MBP1300   0.0000
    26 H9      27.7050   9.3013  63.2542   H         1 MBP1300   0.0000
    27 H10     25.0700   2.7249  63.1460   H         1 MBP1300   0.0000
    28 H11     26.9078   2.4830  64.8449   H         1 MBP1300   0.0000
    29 H12     29.9126   7.5260  66.3724   H         1 MBP1300   0.0000
    30 H13     30.1147   5.8593  66.8937   H         1 MBP1300   0.0000
@<TRIPOS>BOND
     1     1    10   ar
     2     1    11    1
     3     1    12   ar
     4     2     3   ar
     5     2     9    1
     6     2    10   ar
     7     3    13   ar
     8     3    16    1
     9     4     5    2
    10     4     7    1
    11     4    15    1
    12     6     7    1
    13     7     8    1
    14     9    17    1
    15    12    13   ar
    16    13    14    1
    17    14    15    1
    18    16    17    2
    19     6    18    1
    20     6    19    1
    21     6    20    1
    22     7    21    1
    23     8    22    1
    24     8    23    1
    25     8    24    1
    26    15    25    1
    27    15    26    1
    28    17    27    1
    29     9    28    1
    30    11    29    1
    31    11    30    1
@<TRIPOS>SUBSTRUCTURE
     1 MBP1300     1 GROUP             0 A     MBP     0  
@<TRIPOS>SET
CCDC_LIGAND STATIC ATOMS
30 1 2 3 4 5 6 7 8 9 \
10 11 12 13 14 15 16 17 18 19 \
20 21 22 23 24 25 26 27 28 29 \
30 
@<TRIPOS>MOLECULE
A:50Z446
    32    33     1     0     1
SMALL
NO_CHARGES
****
Generated from the CSD

@<TRIPOS>ATOM
     1 N1      28.6222   4.3030  65.5252   N.2       1 50Z446   0.0000
     2 C2      27.6461   4.1160  64.6145   C.2       1 50Z446   0.0000
     3 N3      27.1160   2.8865  64.4285   N.pl3     1 50Z446   0.0000
     4 C4      27.2784   5.2826  63.9179   C.2       1 50Z446   0.0000
     5 C5      26.3323   5.4019  62.9199   C.2       1 50Z446   0.0000
     6 C6      26.0417   6.7092  62.2310   C.ar      1 50Z446   0.0000
     7 C8      26.0763   9.1874  62.1749   C.ar      1 50Z446   0.0000
     8 N8      26.3490   7.9598  62.8427   N.ar      1 50Z446   0.0000
     9 C9      25.5069   9.1687  60.9191   C.ar      1 50Z446   0.0000
    10 C10     25.1957   7.9798  60.2954   C.ar      1 50Z446   0.0000
    11 C11     25.4535   6.7297  60.9299   C.ar      1 50Z446   0.0000
    12 O12     25.6350   4.3121  62.4979   O.3       1 50Z446   0.0000
    13 S13     28.2030   6.6273  64.4634   S.3       1 50Z446   0.0000
    14 C14     29.0233   5.5914  65.5579   C.2       1 50Z446   0.0000
    15 N15     30.0197   6.0043  66.4140   N.2       1 50Z446   0.0000
    16 C16     30.4805   7.3874  66.4507   C.3       1 50Z446   0.0000
    17 C17     31.4127   7.6956  65.2983   C.3       1 50Z446   0.0000
    18 C18     31.1026   8.7689  64.3330   C.3       1 50Z446   0.0000
    19 H1      25.2995  10.1095  60.4115   H         1 50Z446   0.0000
    20 H2      24.7464   7.9956  59.3035   H         1 50Z446   0.0000
    21 H3      26.3812   2.7492  63.7420   H         1 50Z446   0.0000
    22 H4      27.4529   2.1006  64.9754   H         1 50Z446   0.0000
    23 H5      31.0082   7.5593  67.3877   H         1 50Z446   0.0000
    24 H6      29.6173   8.0490  66.3936   H         1 50Z446   0.0000
    25 H7      25.1271   3.9285  63.2601   H         1 50Z446   0.0000
    26 H8      25.2037   5.7971  60.4261   H         1 50Z446   0.0000
    27 H9      26.3162  10.1359  62.6532   H         1 50Z446   0.0000
    28 H10     31.5043   6.7771  64.7205   H         1 50Z446   0.0000
    29 H11     32.3769   7.9451  65.7387   H         1 50Z446   0.0000
    30 H12     31.0285   9.7197  64.8587   H         1 50Z446   0.0000
    31 H13     31.8946   8.8269  63.5878   H         1 50Z446   0.0000
    32 H14     30.1559   8.5518  63.8405   H         1 50Z446   0.0000
@<TRIPOS>BOND
     1     1     2    2
     2     1    14    1
     3     2     3    1
     4     2     4    1
     5     4     5    2
     6     4    13    1
     7     5     6    1
     8     5    12    1
     9     6     8   ar
    10     6    11   ar
    11     7     8   ar
    12     7     9   ar
    13     9    10   ar
    14    10    11   ar
    15    13    14    1
    16    14    15    2
    17    15    16    1
    18    16    17    1
    19    17    18    1
    20     9    19    1
    21    10    20    1
    22     3    21    1
    23     3    22    1
    24    16    23    1
    25    16    24    1
    26    12    25    1
    27    11    26    1
    28     7    27    1
    29    17    28    1
    30    17    29    1
    31    18    30    1
    32    18    31    1
    33    18    32    1
@<TRIPOS>SUBSTRUCTURE
     1 50Z446      1 GROUP             0 A     50Z     0  
@<TRIPOS>SET
CCDC_LIGAND STATIC ATOMS
32 1 2 3 4 5 6 7 8 9 \
10 11 12 13 14 15 16 17 18 19 \
20 21 22 23 24 25 26 27 28 29 \
30 31 32 
@<TRIPOS>MOLECULE
A:1N3299
    53    56     1     0     1
SMALL
NO_CHARGES
****
Generated from the CSD

@<TRIPOS>ATOM
     1 C1      33.7946  12.2972  64.1547   C.3       1 1N3299   0.0000
     2 O2      34.0301  11.1975  65.0577   O.3       1 1N3299   0.0000
     3 C3      32.9786  10.2668  65.0492   C.ar      1 1N3299   0.0000
     4 C4      31.9959  10.2947  64.0770   C.ar      1 1N3299   0.0000
     5 C5      30.9941   9.3498  64.1128   C.ar      1 1N3299   0.0000
     6 C6      30.9562   8.3880  65.1126   C.ar      1 1N3299   0.0000
     7 C7      31.9349   8.3581  66.0877   C.ar      1 1N3299   0.0000
     8 C8      32.9377   9.3071  66.0510   C.ar      1 1N3299   0.0000
     9 C9      29.8694   7.3733  65.0212   C.2       1 1N3299   0.0000
    10 N10     29.9951   6.0645  65.4862   N.pl3     1 1N3299   0.0000
    11 C11     28.8777   5.4654  65.0929   C.ar      1 1N3299   0.0000
    12 C12     28.0672   6.5198  64.3972   C.ar      1 1N3299   0.0000
    13 N13     28.7468   7.6228  64.4011   N.2       1 1N3299   0.0000
    14 C14     26.8340   6.1841  63.8580   C.ar      1 1N3299   0.0000
    15 C15     26.4684   4.8527  64.0555   C.ar      1 1N3299   0.0000
    16 C16     27.2558   3.9283  64.7069   C.ar      1 1N3299   0.0000
    17 N17     28.4380   4.2432  65.2110   N.ar      1 1N3299   0.0000
    18 BR1     24.8175   4.1932  63.4156   Br        1 1N3299   0.0000
    19 N19     25.9161   7.0122  63.1634   N.pl3     1 1N3299   0.0000
    20 C20     26.3423   8.3670  62.8200   C.3       1 1N3299   0.0000
    21 C21     27.2070   8.3203  61.5689   C.3       1 1N3299   0.0000
    22 C22     26.5274   7.6060  60.4212   C.3       1 1N3299   0.0000
    23 N23     25.4116   8.3768  59.9351   N.am      1 1N3299   0.0000
    24 C24     24.1156   8.0652  60.2866   C.2       1 1N3299   0.0000
    25 O25     23.8086   7.0724  60.9436   O.2       1 1N3299   0.0000
    26 C26     23.0537   9.0137  59.8353   C.3       1 1N3299   0.0000
    27 C27     21.9874   9.3421  60.8462   C.2       1 1N3299   0.0000
    28 C28     21.6588   8.4547  59.7050   C.2       1 1N3299   0.0000
    29 C29     23.3314  10.1060  58.8430   C.3       1 1N3299   0.0000
    30 N30     23.5861   9.6557  57.4548   N.3       1 1N3299   0.0000
    31 H1      33.7085   9.3022  66.8203   H         1 1N3299   0.0000
    32 H2      32.8823  12.8162  64.4450   H         1 1N3299   0.0000
    33 H3      34.6349  12.9885  64.1976   H         1 1N3299   0.0000
    34 H4      33.6887  11.9171  63.1397   H         1 1N3299   0.0000
    35 H5      26.8937   2.9064  64.8101   H         1 1N3299   0.0000
    36 H6      32.0135  11.0523  63.2949   H         1 1N3299   0.0000
    37 H7      30.2211   9.3576  63.3457   H         1 1N3299   0.0000
    38 H8      31.9158   7.6009  66.8701   H         1 1N3299   0.0000
    39 H9      24.9923   6.6746  62.9127   H         1 1N3299   0.0000
    40 H10     26.9171   8.7874  63.6440   H         1 1N3299   0.0000
    41 H11     25.4670   8.9876  62.6342   H         1 1N3299   0.0000
    42 H12     30.7668   5.6611  66.0078   H         1 1N3299   0.0000
    43 H13     21.6806   9.8572  61.7553   H         1 1N3299   0.0000
    44 H14     20.9363   7.8441  59.1655   H         1 1N3299   0.0000
    45 H15     24.2081  10.6546  59.1842   H         1 1N3299   0.0000
    46 H16     22.4700  10.7721  58.8271   H         1 1N3299   0.0000
    47 H17     22.7755   9.1529  57.1081   H         1 1N3299   0.0000
    48 H18     23.7620  10.4623  56.8643   H         1 1N3299   0.0000
    49 H19     28.1341   7.7997  61.8043   H         1 1N3299   0.0000
    50 H20     27.4317   9.3405  61.2613   H         1 1N3299   0.0000
    51 H21     26.1704   6.6361  60.7642   H         1 1N3299   0.0000
    52 H22     27.2437   7.4642  59.6133   H         1 1N3299   0.0000
    53 H23     25.5834   9.1661  59.3206   H         1 1N3299   0.0000
@<TRIPOS>BOND
     1     1     2    1
     2     2     3    1
     3     3     4   ar
     4     3     8   ar
     5     4     5   ar
     6     5     6   ar
     7     6     7   ar
     8     6     9    1
     9     7     8   ar
    10     9    10    1
    11     9    13    2
    12    10    11    1
    13    11    12   ar
    14    11    17   ar
    15    12    13    1
    16    12    14   ar
    17    14    15   ar
    18    14    19    1
    19    15    16   ar
    20    15    18    1
    21    16    17   ar
    22    19    20    1
    23    20    21    1
    24    21    22    1
    25    22    23    1
    26    23    24   am
    27    24    25    2
    28    24    26    1
    29    26    27    1
    30    26    28    1
    31    26    29    1
    32    27    28    2
    33    29    30    1
    34     8    31    1
    35     1    32    1
    36     1    33    1
    37     1    34    1
    38    16    35    1
    39     4    36    1
    40     5    37    1
    41     7    38    1
    42    19    39    1
    43    20    40    1
    44    20    41    1
    45    10    42    1
    46    27    43    1
    47    28    44    1
    48    29    45    1
    49    29    46    1
    50    30    47    1
    51    30    48    1
    52    21    49    1
    53    21    50    1
    54    22    51    1
    55    22    52    1
    56    23    53    1
@<TRIPOS>SUBSTRUCTURE
     1 1N3299      1 GROUP             0 A     1N3     0  
@<TRIPOS>SET
CCDC_LIGAND STATIC ATOMS
53 1 2 3 4 5 6 7 8 9 \
10 11 12 13 14 15 16 17 18 19 \
20 21 22 23 24 25 26 27 28 29 \
30 31 32 33 34 35 36 37 38 39 \
40 41 42 43 44 45 46 47 48 49 \
50 51 52 53 
@<TRIPOS>MOLECULE
A:L0F1299
    36    39     1     0     1
SMALL
NO_CHARGES
****
Generated from the CSD

@<TRIPOS>ATOM
     1 O1      25.0097   5.3443  62.3612   O.2       1 L0F1299   0.0000
     2 C2      25.8968   6.1868  62.4083   C.2       1 L0F1299   0.0000
     3 N3      27.0021   6.0245  63.2056   N.am      1 L0F1299   0.0000
     4 C4      27.2850   4.9165  64.0668   C.2       1 L0F1299   0.0000
     5 C5      26.6112   3.7334  64.1874   C.2       1 L0F1299   0.0000
     6 N6      27.2480   2.9835  65.1216   N.pl3     1 L0F1299   0.0000
     7 N8      28.3471   3.7115  65.5940   N.2       1 L0F1299   0.0000
     8 C9      28.3796   4.8706  64.9649   C.2       1 L0F1299   0.0000
     9 C10     29.3760   5.9493  65.1601   C.2       1 L0F1299   0.0000
    10 N11     29.3554   7.1058  64.5352   N.2       1 L0F1299   0.0000
    11 C12     30.3906   7.8687  64.9451   C.ar      1 L0F1299   0.0000
    12 C13     30.8572   9.1710  64.5861   C.ar      1 L0F1299   0.0000
    13 C14     31.9974   9.6918  65.1949   C.ar      1 L0F1299   0.0000
    14 C15     32.7271   8.9242  66.1296   C.ar      1 L0F1299   0.0000
    15 C16     32.2916   7.6367  66.4915   C.ar      1 L0F1299   0.0000
    16 C17     31.1400   7.0830  65.8756   C.ar      1 L0F1299   0.0000
    17 N18     30.4542   5.8909  66.0052   N.pl3     1 L0F1299   0.0000
    18 C20     25.7880   7.4273  61.5803   C.ar      1 L0F1299   0.0000
    19 C21     24.8956   7.4842  60.4684   C.ar      1 L0F1299   0.0000
    20 C22     24.7995   8.6583  59.6939   C.ar      1 L0F1299   0.0000
    21 C23     25.5838   9.7856  60.0154   C.ar      1 L0F1299   0.0000
    22 C24     26.4712   9.7448  61.1134   C.ar      1 L0F1299   0.0000
    23 C25     26.5764   8.5756  61.8969   C.ar      1 L0F1299   0.0000
    24 H1      27.2598   8.5488  62.7444   H         1 L0F1299   0.0000
    25 H2      27.6919   6.7687  63.1821   H         1 L0F1299   0.0000
    26 H3      25.7205   3.4439  63.6318   H         1 L0F1299   0.0000
    27 H4      26.9747   2.0545  65.4259   H         1 L0F1299   0.0000
    28 H5      30.3228   9.7551  63.8383   H         1 L0F1299   0.0000
    29 H6      32.3288  10.6993  64.9479   H         1 L0F1299   0.0000
    30 H7      33.6339   9.3324  66.5734   H         1 L0F1299   0.0000
    31 H8      32.8368   7.0667  67.2424   H         1 L0F1299   0.0000
    32 H9      30.7021   5.1164  66.6126   H         1 L0F1299   0.0000
    33 H10     24.2863   6.6173  60.2171   H         1 L0F1299   0.0000
    34 H11     24.1180   8.6948  58.8452   H         1 L0F1299   0.0000
    35 H12     25.5049  10.6906  59.4149   H         1 L0F1299   0.0000
    36 H13     27.0758  10.6175  61.3560   H         1 L0F1299   0.0000
@<TRIPOS>BOND
     1     1     2    2
     2     2     3   am
     3     2    18    1
     4     3     4    1
     5     4     5    2
     6     4     8    1
     7     5     6    1
     8     6     7    1
     9     7     8    2
    10     8     9    1
    11     9    10    2
    12     9    17    1
    13    10    11    1
    14    11    12   ar
    15    11    16   ar
    16    12    13   ar
    17    13    14   ar
    18    14    15   ar
    19    15    16   ar
    20    16    17    1
    21    18    19   ar
    22    18    23   ar
    23    19    20   ar
    24    20    21   ar
    25    21    22   ar
    26    22    23   ar
    27    23    24    1
    28     3    25    1
    29     5    26    1
    30     6    27    1
    31    12    28    1
    32    13    29    1
    33    14    30    1
    34    15    31    1
    35    17    32    1
    36    19    33    1
    37    20    34    1
    38    21    35    1
    39    22    36    1
@<TRIPOS>SUBSTRUCTURE
     1 L0F1299     1 GROUP             0 A     L0F     0  
@<TRIPOS>SET
CCDC_LIGAND STATIC ATOMS
36 1 2 3 4 5 6 7 8 9 \
10 11 12 13 14 15 16 17 18 19 \
20 21 22 23 24 25 26 27 28 29 \
30 31 32 33 34 35 36 
@<TRIPOS>MOLECULE
A:HGQ402
    12    12     1     0     1
SMALL
NO_CHARGES
****
Generated from the CSD

@<TRIPOS>ATOM
     1 C4      35.1924   5.8638  28.9279   C.2       1 HGQ402   0.0000
     2 C5      34.8170   4.9951  29.8598   C.2       1 HGQ402   0.0000
     3 N1      33.6586   5.1347  30.5269   N.am      1 HGQ402   0.0000
     4 C3      34.2901   6.8726  28.5917   C.2       1 HGQ402   0.0000
     5 O1      31.6884   6.0101  30.8772   O.2       1 HGQ402   0.0000
     6 C1      32.7019   6.0794  30.2260   C.2       1 HGQ402   0.0000
     7 C2      33.0663   7.0635  29.2174   C.2       1 HGQ402   0.0000
     8 BR1     34.7752   7.9378  27.1569   Br        1 HGQ402   0.0000
     9 H1      36.1661   5.7912  28.4456   H         1 HGQ402   0.0000
    10 H2      35.4634   4.1492  30.0889   H         1 HGQ402   0.0000
    11 H3      33.4770   4.5043  31.3014   H         1 HGQ402   0.0000
    12 H4      32.4163   7.9010  28.9682   H         1 HGQ402   0.0000
@<TRIPOS>BOND
     1     1     2    2
     2     1     4    1
     3     2     3    1
     4     3     6   am
     5     4     7    2
     6     4     8    1
     7     5     6    2
     8     6     7    1
     9     1     9    1
    10     2    10    1
    11     3    11    1
    12     7    12    1
@<TRIPOS>SUBSTRUCTURE
     1 HGQ402      1 GROUP             0 A     HGQ     0  
@<TRIPOS>SET
CCDC_LIGAND STATIC ATOMS
12 1 2 3 4 5 6 7 8 9 \
10 11 12 
@<TRIPOS>MOLECULE
A:CT81299
    37    40     1     0     1
SMALL
NO_CHARGES
****
Generated from the CSD

@<TRIPOS>ATOM
     1 BR1     25.7308  12.3860  62.2457   Br        1 CT81299   0.0000
     2 C1      25.9347  10.6311  61.5662   C.ar      1 CT81299   0.0000
     3 C2      26.4188   9.6292  62.3997   C.ar      1 CT81299   0.0000
     4 C3      26.5788   8.3301  61.9186   C.ar      1 CT81299   0.0000
     5 C4      26.2223   8.0207  60.5815   C.ar      1 CT81299   0.0000
     6 C5      25.7212   9.0306  59.7429   C.ar      1 CT81299   0.0000
     7 C6      25.5804  10.3389  60.2387   C.ar      1 CT81299   0.0000
     8 C7      27.0876   7.2566  62.8256   C.2       1 CT81299   0.0000
     9 C8      28.2723   7.4335  63.5608   C.2       1 CT81299   0.0000
    10 C9      28.7159   6.3696  64.3788   C.2       1 CT81299   0.0000
    11 N2      27.9717   5.2436  64.4481   N.pl3     1 CT81299   0.0000
    12 N3      28.1875   4.1563  65.1465   N.2       1 CT81299   0.0000
    13 C12     27.1822   3.2852  64.8635   C.2       1 CT81299   0.0000
    14 C10     26.8526   5.1112  63.7636   C.2       1 CT81299   0.0000
    15 N1      26.4051   6.0807  62.9297   N.2       1 CT81299   0.0000
    16 N4      29.9159   6.4663  65.1126   N.pl3     1 CT81299   0.0000
    17 C13     31.0232   7.2645  64.6046   C.3       1 CT81299   0.0000
    18 C14     31.3026   8.3820  65.5777   C.ar      1 CT81299   0.0000
    19 C15     31.3040   8.1312  66.9444   C.ar      1 CT81299   0.0000
    20 C16     31.5373   9.1675  67.8364   C.ar      1 CT81299   0.0000
    21 N5      31.7700  10.4188  67.3755   N.ar      1 CT81299   0.0000
    22 C17     31.7879  10.6780  66.0336   C.ar      1 CT81299   0.0000
    23 C18     31.5396   9.6623  65.1172   C.ar      1 CT81299   0.0000
    24 N11     26.3374   3.9057  64.0007   N.2       1 CT81299   0.0000
    25 H1      25.4435   8.8015  58.7152   H         1 CT81299   0.0000
    26 H2      26.6743   9.8600  63.4328   H         1 CT81299   0.0000
    27 H3      26.3365   7.0048  60.2062   H         1 CT81299   0.0000
    28 H4      25.1961  11.1267  59.5925   H         1 CT81299   0.0000
    29 H5      28.8333   8.3650  63.5018   H         1 CT81299   0.0000
    30 H6      27.0747   2.2754  65.2567   H         1 CT81299   0.0000
    31 H7      30.0084   5.9782  65.9977   H         1 CT81299   0.0000
    32 H8      30.7588   7.6817  63.6341   H         1 CT81299   0.0000
    33 H9      31.9085   6.6387  64.5017   H         1 CT81299   0.0000
    34 H10     31.1223   7.1232  67.3143   H         1 CT81299   0.0000
    35 H11     31.5333   8.9742  68.9081   H         1 CT81299   0.0000
    36 H12     31.9978  11.6863  65.6801   H         1 CT81299   0.0000
    37 H13     31.5321   9.8739  64.0490   H         1 CT81299   0.0000
@<TRIPOS>BOND
     1     1     2    1
     2     2     3   ar
     3     2     7   ar
     4     3     4   ar
     5     4     5   ar
     6     4     8    1
     7     5     6   ar
     8     6     7   ar
     9     8     9    1
    10     8    15    2
    11     9    10    2
    12    10    11    1
    13    10    16    1
    14    11    12    1
    15    11    14    1
    16    12    13    2
    17    13    24    1
    18    14    15    1
    19    14    24    2
    20    16    17    1
    21    17    18    1
    22    18    19   ar
    23    18    23   ar
    24    19    20   ar
    25    20    21   ar
    26    21    22   ar
    27    22    23   ar
    28     6    25    1
    29     3    26    1
    30     5    27    1
    31     7    28    1
    32     9    29    1
    33    13    30    1
    34    16    31    1
    35    17    32    1
    36    17    33    1
    37    19    34    1
    38    20    35    1
    39    22    36    1
    40    23    37    1
@<TRIPOS>SUBSTRUCTURE
     1 CT81299     1 GROUP             0 A     CT8     0  
@<TRIPOS>SET
CCDC_LIGAND STATIC ATOMS
37 1 2 3 4 5 6 7 8 9 \
10 11 12 13 14 15 16 17 18 19 \
20 21 22 23 24 25 26 27 28 29 \
30 31 32 33 34 35 36 37 
@<TRIPOS>MOLECULE
A:MTW1298
    43    46     1     0     1
SMALL
NO_CHARGES
****
Generated from the CSD

@<TRIPOS>ATOM
     1 C       26.0893  10.4833  61.0047   C.2       1 MTW1298   0.0000
     2 N1      25.2291  11.3797  61.4799   N.2       1 MTW1298   0.0000
     3 C1      24.0057  10.8695  61.3189   C.2       1 MTW1298   0.0000
     4 N2      24.1401   9.6821  60.7343   N.2       1 MTW1298   0.0000
     5 N       25.3411   9.4852  60.5382   N.pl3     1 MTW1298   0.0000
     6 C2      25.8926   8.2562  59.9432   C.3       1 MTW1298   0.0000
     7 C3      25.5314   7.0810  60.8580   C.ar      1 MTW1298   0.0000
     8 C4      26.3438   6.5891  61.8751   C.ar      1 MTW1298   0.0000
     9 C17     24.2690   6.5299  60.6953   C.ar      1 MTW1298   0.0000
    10 C18     23.8453   5.4517  61.4591   C.ar      1 MTW1298   0.0000
    11 C6      24.6792   4.9417  62.4455   C.ar      1 MTW1298   0.0000
    12 C5      25.9136   5.5340  62.6747   C.ar      1 MTW1298   0.0000
    13 C7      26.7225   4.9640  63.6537   C.ar      1 MTW1298   0.0000
    14 N3      27.6740   5.6928  64.2685   N.ar      1 MTW1298   0.0000
    15 C8      26.5540   3.6053  63.9365   C.ar      1 MTW1298   0.0000
    16 C9      27.4472   3.0352  64.8289   C.ar      1 MTW1298   0.0000
    17 N4      28.3626   3.8161  65.3971   N.ar      1 MTW1298   0.0000
    18 C10     28.5204   5.1298  65.1541   C.ar      1 MTW1298   0.0000
    19 N5      29.4832   5.8475  65.7520   N.pl3     1 MTW1298   0.0000
    20 C11     29.8177   7.1179  65.4619   C.ar      1 MTW1298   0.0000
    21 C14     29.0924   7.9408  64.5981   C.ar      1 MTW1298   0.0000
    22 C12     30.9761   7.6684  66.0089   C.ar      1 MTW1298   0.0000
    23 C13     31.4091   8.9526  65.6903   C.ar      1 MTW1298   0.0000
    24 C16     30.6637   9.7555  64.8292   C.ar      1 MTW1298   0.0000
    25 C15     29.4945   9.2421  64.2720   C.ar      1 MTW1298   0.0000
    26 N6      28.6982  10.0321  63.5331   N.pl3     1 MTW1298   0.0000
    27 O2      28.8376  10.4005  62.1460   O.2       1 MTW1298   0.0000
    28 O1      27.5430  10.4940  64.2169   O.2       1 MTW1298   0.0000
    29 H1      27.1762  10.5512  60.9984   H         1 MTW1298   0.0000
    30 H2      23.0684  11.3398  61.6126   H         1 MTW1298   0.0000
    31 H3      26.9752   8.3400  59.8599   H         1 MTW1298   0.0000
    32 H4      25.4635   8.0999  58.9546   H         1 MTW1298   0.0000
    33 H5      27.3234   7.0328  62.0467   H         1 MTW1298   0.0000
    34 H6      23.5953   6.9528  59.9516   H         1 MTW1298   0.0000
    35 H7      22.8657   5.0085  61.2862   H         1 MTW1298   0.0000
    36 H8      24.3664   4.0819  63.0360   H         1 MTW1298   0.0000
    37 H9      25.7575   3.0222  63.4767   H         1 MTW1298   0.0000
    38 H10     27.4012   1.9721  65.0601   H         1 MTW1298   0.0000
    39 H11     30.0073   5.3902  66.4912   H         1 MTW1298   0.0000
    40 H12     28.1741   7.5539  64.1589   H         1 MTW1298   0.0000
    41 H13     31.5616   7.0739  66.7088   H         1 MTW1298   0.0000
    42 H14     32.3364   9.3322  66.1168   H         1 MTW1298   0.0000
    43 H15     30.9898  10.7679  64.5956   H         1 MTW1298   0.0000
@<TRIPOS>BOND
     1     1     2    2
     2     1     5    1
     3     2     3    1
     4     3     4    2
     5     4     5    1
     6     5     6    1
     7     6     7    1
     8     7     8   ar
     9     7     9   ar
    10     8    12   ar
    11     9    10   ar
    12    10    11   ar
    13    11    12   ar
    14    12    13    1
    15    13    14   ar
    16    13    15   ar
    17    14    18   ar
    18    15    16   ar
    19    16    17   ar
    20    17    18   ar
    21    18    19    1
    22    19    20    1
    23    20    21   ar
    24    20    22   ar
    25    21    25   ar
    26    22    23   ar
    27    23    24   ar
    28    24    25   ar
    29    25    26    1
    30    26    27    2
    31    26    28    2
    32     1    29    1
    33     3    30    1
    34     6    31    1
    35     6    32    1
    36     8    33    1
    37     9    34    1
    38    10    35    1
    39    11    36    1
    40    15    37    1
    41    16    38    1
    42    19    39    1
    43    21    40    1
    44    22    41    1
    45    23    42    1
    46    24    43    1
@<TRIPOS>SUBSTRUCTURE
     1 MTW1298     1 GROUP             0 A     MTW     0  
@<TRIPOS>SET
CCDC_LIGAND STATIC ATOMS
43 1 2 3 4 5 6 7 8 9 \
10 11 12 13 14 15 16 17 18 19 \
20 21 22 23 24 25 26 27 28 29 \
30 31 32 33 34 35 36 37 38 39 \
40 41 42 43 
@<TRIPOS>MOLECULE
A:X03299
    40    41     1     0     1
SMALL
NO_CHARGES
****
Generated from the CSD

@<TRIPOS>ATOM
     1 N1      28.6981   4.4741  65.6926   N.2       1 X03299   0.0000
     2 N2      27.6367   3.7044  65.1356   N.pl3     1 X03299   0.0000
     3 C3      26.9026   4.5260  64.3122   C.2       1 X03299   0.0000
     4 C4      27.4651   5.7851  64.3188   C.2       1 X03299   0.0000
     5 C5      28.6348   5.7299  65.2219   C.2       1 X03299   0.0000
     6 C6      29.5575   6.8411  65.5477   C.2       1 X03299   0.0000
     7 N7      30.5713   6.6371  66.4136   N.am      1 X03299   0.0000
     8 N8      31.4849   7.6877  66.7600   N.3       1 X03299   0.0000
     9 O9      29.3997   7.9594  65.0279   O.2       1 X03299   0.0000
    10 C10     25.6370   4.1751  63.4805   C.3       1 X03299   0.0000
    11 C11     25.0113   5.3996  62.6580   C.3       1 X03299   0.0000
    12 C12     26.0730   6.5291  62.1881   C.3       1 X03299   0.0000
    13 C13     26.8887   6.9611  63.4999   C.3       1 X03299   0.0000
    14 C14     25.4691   7.8414  61.3709   C.3       1 X03299   0.0000
    15 C15     26.0616   7.8756  59.8647   C.3       1 X03299   0.0000
    16 C16     25.6723   6.5926  59.2336   C.3       1 X03299   0.0000
    17 C17     25.8314   9.1783  62.1258   C.3       1 X03299   0.0000
    18 C18     23.9115   7.8019  61.2556   C.3       1 X03299   0.0000
    19 H1      27.4541   2.7222  65.3148   H         1 X03299   0.0000
    20 H2      30.6907   5.7191  66.8297   H         1 X03299   0.0000
    21 H3      30.9728   8.4563  67.1810   H         1 X03299   0.0000
    22 H4      32.1704   7.3358  67.4207   H         1 X03299   0.0000
    23 H5      24.8756   3.8020  64.1639   H         1 X03299   0.0000
    24 H6      25.9038   3.3924  62.7719   H         1 X03299   0.0000
    25 H7      24.2637   5.8808  63.2868   H         1 X03299   0.0000
    26 H8      24.5315   4.9968  61.7672   H         1 X03299   0.0000
    27 H9      26.7816   6.0397  61.5216   H         1 X03299   0.0000
    28 H10     27.7170   7.5966  63.1902   H         1 X03299   0.0000
    29 H11     26.2184   7.5271  64.1450   H         1 X03299   0.0000
    30 H12     27.1462   7.9699  59.8886   H         1 X03299   0.0000
    31 H13     25.6365   8.7118  59.3116   H         1 X03299   0.0000
    32 H14     24.5867   6.5074  59.2241   H         1 X03299   0.0000
    33 H15     26.0478   6.5620  58.2119   H         1 X03299   0.0000
    34 H16     26.0964   5.7655  59.8011   H         1 X03299   0.0000
    35 H17     26.9140   9.2734  62.1962   H         1 X03299   0.0000
    36 H18     25.4275  10.0268  61.5755   H         1 X03299   0.0000
    37 H19     25.4030   9.1576  63.1267   H         1 X03299   0.0000
    38 H20     23.4738   7.7947  62.2527   H         1 X03299   0.0000
    39 H21     23.5653   8.6807  60.7135   H         1 X03299   0.0000
    40 H22     23.6098   6.9029  60.7202   H         1 X03299   0.0000
@<TRIPOS>BOND
     1     1     2    1
     2     1     5    2
     3     2     3    1
     4     3     4    2
     5     3    10    1
     6     4     5    1
     7     4    13    1
     8     5     6    1
     9     6     7   am
    10     6     9    2
    11     7     8    1
    12    10    11    1
    13    11    12    1
    14    12    13    1
    15    12    14    1
    16    14    15    1
    17    14    17    1
    18    14    18    1
    19    15    16    1
    20     2    19    1
    21     7    20    1
    22     8    21    1
    23     8    22    1
    24    10    23    1
    25    10    24    1
    26    11    25    1
    27    11    26    1
    28    12    27    1
    29    13    28    1
    30    13    29    1
    31    15    30    1
    32    15    31    1
    33    16    32    1
    34    16    33    1
    35    16    34    1
    36    17    35    1
    37    17    36    1
    38    17    37    1
    39    18    38    1
    40    18    39    1
    41    18    40    1
@<TRIPOS>SUBSTRUCTURE
     1 X03299      1 GROUP             0 A     X03     0  
@<TRIPOS>SET
CCDC_LIGAND STATIC ATOMS
40 1 2 3 4 5 6 7 8 9 \
10 11 12 13 14 15 16 17 18 19 \
20 21 22 23 24 25 26 27 28 29 \
30 31 32 33 34 35 36 37 38 39 \
40 
@<TRIPOS>MOLECULE
A:HGW301
    10    10     1     0     1
SMALL
NO_CHARGES
****
Generated from the CSD

@<TRIPOS>ATOM
     1 C4      27.6116   4.0124  64.9640   C.ar      1 HGW301   0.0000
     2 N1      28.0282   6.7082  65.1328   N.ar      1 HGW301   0.0000
     3 N2      28.5756   4.5239  65.8080   N.ar      1 HGW301   0.0000
     4 C3      28.7682   5.8505  65.8225   C.ar      1 HGW301   0.0000
     5 I1      25.3994   4.1177  62.8171   I         1 HGW301   0.0000
     6 C1      26.8619   4.8474  64.1479   C.ar      1 HGW301   0.0000
     7 C2      27.0945   6.2069  64.2893   C.ar      1 HGW301   0.0000
     8 H1      27.4365   2.9379  64.9379   H         1 HGW301   0.0000
     9 H2      29.5774   6.2460  66.4347   H         1 HGW301   0.0000
    10 H3      26.5009   6.9016  63.6968   H         1 HGW301   0.0000
@<TRIPOS>BOND
     1     1     3   ar
     2     1     6   ar
     3     2     4   ar
     4     2     7   ar
     5     3     4   ar
     6     5     6    1
     7     6     7   ar
     8     1     8    1
     9     4     9    1
    10     7    10    1
@<TRIPOS>SUBSTRUCTURE
     1 HGW301      1 GROUP             0 A     HGW     0  
@<TRIPOS>SET
CCDC_LIGAND STATIC ATOMS
10 1 2 3 4 5 6 7 8 9 \
10 
@<TRIPOS>MOLECULE
A:EZV300
    57    62     1     0     1
SMALL
NO_CHARGES
****
Generated from the CSD

@<TRIPOS>ATOM
     1 C1      25.4250   5.7521  62.2068   C.ar      1 EZV300   0.0000
     2 C2      24.9328   4.4633  62.2189   C.ar      1 EZV300   0.0000
     3 C3      25.4307   3.5189  63.0949   C.ar      1 EZV300   0.0000
     4 C4      26.4460   3.9559  63.9119   C.ar      1 EZV300   0.0000
     5 C5      26.9495   5.2391  63.9069   C.ar      1 EZV300   0.0000
     6 C6      26.4242   6.1887  63.0442   C.ar      1 EZV300   0.0000
     7 N7      27.1511   3.3020  64.8756   N.pl3     1 EZV300   0.0000
     8 N8      28.0983   4.0341  65.4768   N.2       1 EZV300   0.0000
     9 C9      27.9699   5.2244  64.8911   C.2       1 EZV300   0.0000
    10 C10     28.8904   6.3371  65.1843   C.2       1 EZV300   0.0000
    11 N11     29.8041   6.3558  66.1959   N.pl3     1 EZV300   0.0000
    12 C12     30.5073   7.5213  66.1107   C.ar      1 EZV300   0.0000
    13 C13     29.9711   8.1785  65.0210   C.ar      1 EZV300   0.0000
    14 N14     28.9761   7.4236  64.4531   N.2       1 EZV300   0.0000
    15 C15     31.5261   8.0202  66.8910   C.ar      1 EZV300   0.0000
    16 C16     31.9921   9.2513  66.4905   C.ar      1 EZV300   0.0000
    17 C17     31.4775   9.9201  65.4017   C.ar      1 EZV300   0.0000
    18 C18     30.4537   9.4180  64.6224   C.ar      1 EZV300   0.0000
    19 C19     23.9547   4.0821  61.2298   C.ar      1 EZV300   0.0000
    20 N20     29.9312  10.1042  63.5061   N.3       1 EZV300   0.0000
    21 C21     30.2042   9.3590  62.2890   C.3       1 EZV300   0.0000
    22 C22     29.3239   9.9238  61.1934   C.3       1 EZV300   0.0000
    23 N23     29.6407  11.3771  61.0773   N.3       1 EZV300   0.0000
    24 C24     29.5605  12.1571  62.3442   C.3       1 EZV300   0.0000
    25 C25     30.3974  11.4774  63.4053   C.3       1 EZV300   0.0000
    26 C26     28.8328  12.0137  60.0134   C.3       1 EZV300   0.0000
    27 C27     22.9385   4.9162  60.8149   C.ar      1 EZV300   0.0000
    28 C28     22.0754   4.4963  59.8262   C.ar      1 EZV300   0.0000
    29 C29     22.1968   3.2541  59.2378   C.ar      1 EZV300   0.0000
    30 C30     23.2078   2.4163  59.6453   C.ar      1 EZV300   0.0000
    31 C31     24.0761   2.8435  60.6255   C.ar      1 EZV300   0.0000
    32 N32     21.3022   2.8478  58.2445   N.pl3     1 EZV300   0.0000
    33 H1      31.4481  11.4947  63.1195   H         1 EZV300   0.0000
    34 H2      30.2727  11.9848  64.3607   H         1 EZV300   0.0000
    35 H3      24.8855   2.1841  60.9352   H         1 EZV300   0.0000
    36 H4      26.9727   2.3331  65.1200   H         1 EZV300   0.0000
    37 H5      31.8978  10.8908  65.1431   H         1 EZV300   0.0000
    38 H6      29.9378   5.6288  66.8915   H         1 EZV300   0.0000
    39 H7      25.0464   2.5007  63.1355   H         1 EZV300   0.0000
    40 H8      29.9765   8.3049  62.4409   H         1 EZV300   0.0000
    41 H9      31.2526   9.4680  62.0150   H         1 EZV300   0.0000
    42 H10     21.2771   5.1618  59.5010   H         1 EZV300   0.0000
    43 H11     24.9999   6.4603  61.4972   H         1 EZV300   0.0000
    44 H12     32.7990   9.7149  67.0561   H         1 EZV300   0.0000
    45 H13     22.8188   5.9004  61.2654   H         1 EZV300   0.0000
    46 H14     31.9283   7.4865  67.7508   H         1 EZV300   0.0000
    47 H15     28.2745   9.7903  61.4521   H         1 EZV300   0.0000
    48 H16     29.5322   9.4201  60.2506   H         1 EZV300   0.0000
    49 H17     28.5242  12.2070  62.6753   H         1 EZV300   0.0000
    50 H18     29.9365  13.1650  62.1751   H         1 EZV300   0.0000
    51 H19     21.3996   1.9321  57.8175   H         1 EZV300   0.0000
    52 H20     20.5550   3.4683  57.9498   H         1 EZV300   0.0000
    53 H21     26.7812   7.2175  63.0305   H         1 EZV300   0.0000
    54 H22     27.7747  11.9049  60.2469   H         1 EZV300   0.0000
    55 H23     29.0838  13.0715  59.9507   H         1 EZV300   0.0000
    56 H24     29.0452  11.5331  59.0596   H         1 EZV300   0.0000
    57 H25     23.3205   1.4291  59.1996   H         1 EZV300   0.0000
@<TRIPOS>BOND
     1     1     2   ar
     2     1     6   ar
     3     2     3   ar
     4     2    19    1
     5     3     4   ar
     6     4     5   ar
     7     4     7    1
     8     5     6   ar
     9     5     9    1
    10     7     8    1
    11     8     9    2
    12     9    10    1
    13    10    11    1
    14    10    14    2
    15    11    12    1
    16    12    13   ar
    17    12    15   ar
    18    13    14    1
    19    13    18   ar
    20    15    16   ar
    21    16    17   ar
    22    17    18   ar
    23    18    20    1
    24    19    27   ar
    25    19    31   ar
    26    20    21    1
    27    20    25    1
    28    21    22    1
    29    22    23    1
    30    23    24    1
    31    23    26    1
    32    24    25    1
    33    27    28   ar
    34    28    29   ar
    35    29    30   ar
    36    29    32    1
    37    30    31   ar
    38    25    33    1
    39    25    34    1
    40    31    35    1
    41     7    36    1
    42    17    37    1
    43    11    38    1
    44     3    39    1
    45    21    40    1
    46    21    41    1
    47    28    42    1
    48     1    43    1
    49    16    44    1
    50    27    45    1
    51    15    46    1
    52    22    47    1
    53    22    48    1
    54    24    49    1
    55    24    50    1
    56    32    51    1
    57    32    52    1
    58     6    53    1
    59    26    54    1
    60    26    55    1
    61    26    56    1
    62    30    57    1
@<TRIPOS>SUBSTRUCTURE
     1 EZV300      1 GROUP             0 A     EZV     0  
@<TRIPOS>SET
CCDC_LIGAND STATIC ATOMS
57 1 2 3 4 5 6 7 8 9 \
10 11 12 13 14 15 16 17 18 19 \
20 21 22 23 24 25 26 27 28 29 \
30 31 32 33 34 35 36 37 38 39 \
40 41 42 43 44 45 46 47 48 49 \
50 51 52 53 54 55 56 57 
@<TRIPOS>MOLECULE
A:DT51297
    47    50     1     0     1
SMALL
NO_CHARGES
****
Generated from the CSD

@<TRIPOS>ATOM
     1 N6      34.0827  11.2729  66.1617   N.pl3     1 DT51297   0.0000
     2 S1      33.5691  10.8231  64.7331   S.o2      1 DT51297   0.0000
     3 O2      32.9555  11.9663  64.0477   O.2       1 DT51297   0.0000
     4 O3      34.6862  10.3172  63.9431   O.2       1 DT51297   0.0000
     5 C16     32.3744   9.5846  64.8986   C.ar      1 DT51297   0.0000
     6 C15     32.0804   9.0648  66.1456   C.ar      1 DT51297   0.0000
     7 C17     31.6960   9.1238  63.7615   C.ar      1 DT51297   0.0000
     8 C18     30.7237   8.1383  63.8785   C.ar      1 DT51297   0.0000
     9 C14     31.1210   8.0641  66.2687   C.ar      1 DT51297   0.0000
    10 C13     30.4049   7.6228  65.1377   C.ar      1 DT51297   0.0000
    11 N5      29.5262   6.5855  65.2757   N.pl3     1 DT51297   0.0000
    12 C9      28.3678   6.4023  64.5016   C.2       1 DT51297   0.0000
    13 N2      27.7734   5.2041  64.5206   N.pl3     1 DT51297   0.0000
    14 C10     26.6651   4.9587  63.8420   C.2       1 DT51297   0.0000
    15 N1      26.0764   5.8865  63.0815   N.2       1 DT51297   0.0000
    16 N4      26.3407   3.6762  63.9860   N.2       1 DT51297   0.0000
    17 C11     27.2801   3.1233  64.8043   C.2       1 DT51297   0.0000
    18 N3      28.1520   4.1086  65.1452   N.2       1 DT51297   0.0000
    19 C8      27.7448   7.4608  63.7625   C.2       1 DT51297   0.0000
    20 C7      26.5752   7.1473  63.0224   C.2       1 DT51297   0.0000
    21 O1      25.8749   8.0857  62.2876   O.3       1 DT51297   0.0000
    22 C1      26.5320   9.2749  62.1073   C.3       1 DT51297   0.0000
    23 C2      25.9554  10.2957  63.0966   C.3       1 DT51297   0.0000
    24 C3      26.5471  11.6896  62.8358   C.3       1 DT51297   0.0000
    25 C4      26.2127  12.1349  61.4100   C.3       1 DT51297   0.0000
    26 C5      26.8166  11.1388  60.4191   C.3       1 DT51297   0.0000
    27 C6      26.2338   9.7447  60.6728   C.3       1 DT51297   0.0000
    28 H1      27.3239   2.0838  65.1258   H         1 DT51297   0.0000
    29 H2      28.1545   8.4698  63.7687   H         1 DT51297   0.0000
    30 H3      27.6285  11.6523  62.9590   H         1 DT51297   0.0000
    31 H4      26.1253  12.4002  63.5451   H         1 DT51297   0.0000
    32 H5      26.1983   9.9874  64.1124   H         1 DT51297   0.0000
    33 H6      24.8736  10.3377  62.9789   H         1 DT51297   0.0000
    34 H7      25.1552   9.7775  60.5258   H         1 DT51297   0.0000
    35 H8      26.6749   9.0408  59.9686   H         1 DT51297   0.0000
    36 H9      26.6286  13.1252  61.2304   H         1 DT51297   0.0000
    37 H10     25.1317  12.1665  61.2820   H         1 DT51297   0.0000
    38 H11     27.6033   9.1518  62.2591   H         1 DT51297   0.0000
    39 H12     27.8974  11.1089  60.5484   H         1 DT51297   0.0000
    40 H13     26.5811  11.4507  59.4026   H         1 DT51297   0.0000
    41 H14     31.9319   9.5398  62.7831   H         1 DT51297   0.0000
    42 H15     30.2115   7.7685  62.9915   H         1 DT51297   0.0000
    43 H16     30.9227   7.6201  67.2431   H         1 DT51297   0.0000
    44 H17     29.7254   5.8945  65.9920   H         1 DT51297   0.0000
    45 H18     34.5359  10.6010  66.7728   H         1 DT51297   0.0000
    46 H19     33.9587  12.2331  66.4665   H         1 DT51297   0.0000
    47 H20     32.5979   9.4370  67.0285   H         1 DT51297   0.0000
@<TRIPOS>BOND
     1     1     2    1
     2     2     3    2
     3     2     4    2
     4     2     5    1
     5     5     6   ar
     6     5     7   ar
     7     6     9   ar
     8     7     8   ar
     9     8    10   ar
    10     9    10   ar
    11    10    11    1
    12    11    12    1
    13    12    13    1
    14    12    19    2
    15    13    14    1
    16    13    18    1
    17    14    15    1
    18    14    16    2
    19    15    20    2
    20    16    17    1
    21    17    18    2
    22    19    20    1
    23    20    21    1
    24    21    22    1
    25    22    23    1
    26    22    27    1
    27    23    24    1
    28    24    25    1
    29    25    26    1
    30    26    27    1
    31    17    28    1
    32    19    29    1
    33    24    30    1
    34    24    31    1
    35    23    32    1
    36    23    33    1
    37    27    34    1
    38    27    35    1
    39    25    36    1
    40    25    37    1
    41    22    38    1
    42    26    39    1
    43    26    40    1
    44     7    41    1
    45     8    42    1
    46     9    43    1
    47    11    44    1
    48     1    45    1
    49     1    46    1
    50     6    47    1
@<TRIPOS>SUBSTRUCTURE
     1 DT51297     1 GROUP             0 A     DT5     0  
@<TRIPOS>SET
CCDC_LIGAND STATIC ATOMS
47 1 2 3 4 5 6 7 8 9 \
10 11 12 13 14 15 16 17 18 19 \
20 21 22 23 24 25 26 27 28 29 \
30 31 32 33 34 35 36 37 38 39 \
40 41 42 43 44 45 46 47 
@<TRIPOS>MOLECULE
A:T9N1299
    38    40     1     0     1
SMALL
NO_CHARGES
****
Generated from the CSD

@<TRIPOS>ATOM
     1 C01     25.9503   8.1544  58.9844   C.3       1 T9N1299   0.0000
     2 N02     24.7534   8.5280  59.6839   N.pl3     1 T9N1299   0.0000
     3 C03     24.7630   7.9706  61.0124   C.2       1 T9N1299   0.0000
     4 N04     23.9002   7.0534  61.4690   N.2       1 T9N1299   0.0000
     5 C05     24.2814   6.3117  62.5884   C.2       1 T9N1299   0.0000
     6 C06     23.3310   5.4516  63.3626   C.3       1 T9N1299   0.0000
     7 C07     25.7313   6.3270  62.7303   C.2       1 T9N1299   0.0000
     8 C08     26.6412   5.5209  63.6161   C.ar      1 T9N1299   0.0000
     9 N09     27.6408   6.1477  64.3165   N.ar      1 T9N1299   0.0000
    10 C10     28.5667   5.5888  65.1503   C.ar      1 T9N1299   0.0000
    11 N11     29.6058   6.3240  65.8078   N.pl3     1 T9N1299   0.0000
    12 C12     30.2470   7.4665  65.2040   C.ar      1 T9N1299   0.0000
    13 C13     29.8646   7.9577  63.9972   C.ar      1 T9N1299   0.0000
    14 C14     30.5782   9.1668  63.4176   C.ar      1 T9N1299   0.0000
    15 O15     30.2193   9.6829  62.1911   O.3       1 T9N1299   0.0000
    16 C16     31.5981   9.7519  64.1067   C.ar      1 T9N1299   0.0000
    17 C17     32.0128   9.2173  65.4209   C.ar      1 T9N1299   0.0000
    18 C18     31.3697   8.1242  65.9514   C.ar      1 T9N1299   0.0000
    19 N19     28.4231   4.2798  65.2501   N.ar      1 T9N1299   0.0000
    20 C20     27.4803   3.5557  64.6087   C.ar      1 T9N1299   0.0000
    21 C21     26.5247   4.1252  63.7376   C.ar      1 T9N1299   0.0000
    22 C22     25.5017   3.3339  63.0014   C.1       1 T9N1299   0.0000
    23 N23     24.7196   2.7461  62.4231   N.1       1 T9N1299   0.0000
    24 S24     26.1605   7.8860  62.0293   S.3       1 T9N1299   0.0000
    25 H1      22.9180   4.6861  62.7073   H         1 T9N1299   0.0000
    26 H2      23.8606   4.9765  64.1871   H         1 T9N1299   0.0000
    27 H3      22.5233   6.0666  63.7565   H         1 T9N1299   0.0000
    28 H4      29.9019   6.0300  66.7331   H         1 T9N1299   0.0000
    29 H5      29.0504   7.4873  63.4479   H         1 T9N1299   0.0000
    30 H6      29.2682   9.9671  62.2171   H         1 T9N1299   0.0000
    31 H7      32.1097  10.6170  63.6874   H         1 T9N1299   0.0000
    32 H8      32.8273   9.6890  65.9685   H         1 T9N1299   0.0000
    33 H9      31.6769   7.7333  66.9203   H         1 T9N1299   0.0000
    34 H10     27.4555   2.4792  64.7710   H         1 T9N1299   0.0000
    35 H11     26.0073   7.0690  58.9165   H         1 T9N1299   0.0000
    36 H12     25.9330   8.5804  57.9823   H         1 T9N1299   0.0000
    37 H13     26.8184   8.5304  59.5238   H         1 T9N1299   0.0000
    38 H14     24.0094   9.1010  59.2988   H         1 T9N1299   0.0000
@<TRIPOS>BOND
     1     1     2    1
     2     2     3    1
     3     3     4    2
     4     3    24    1
     5     4     5    1
     6     5     6    1
     7     5     7    2
     8     7     8    1
     9     7    24    1
    10     8     9   ar
    11     8    21   ar
    12     9    10   ar
    13    10    11    1
    14    10    19   ar
    15    11    12    1
    16    12    13   ar
    17    12    18   ar
    18    13    14   ar
    19    14    15    1
    20    14    16   ar
    21    16    17   ar
    22    17    18   ar
    23    19    20   ar
    24    20    21   ar
    25    21    22    1
    26    22    23    3
    27     6    25    1
    28     6    26    1
    29     6    27    1
    30    11    28    1
    31    13    29    1
    32    15    30    1
    33    16    31    1
    34    17    32    1
    35    18    33    1
    36    20    34    1
    37     1    35    1
    38     1    36    1
    39     1    37    1
    40     2    38    1
@<TRIPOS>SUBSTRUCTURE
     1 T9N1299     1 GROUP             0 A     T9N     0  
@<TRIPOS>SET
CCDC_LIGAND STATIC ATOMS
38 1 2 3 4 5 6 7 8 9 \
10 11 12 13 14 15 16 17 18 19 \
20 21 22 23 24 25 26 27 28 29 \
30 31 32 33 34 35 36 37 38 
@<TRIPOS>MOLECULE
A:LZB1299
    26    27     1     0     1
SMALL
NO_CHARGES
****
Generated from the CSD

@<TRIPOS>ATOM
     1 C1      31.5083   7.9334  67.1497   C.3       1 LZB1299   0.0000
     2 C2      30.6480   7.9731  65.8967   C.3       1 LZB1299   0.0000
     3 C3      31.4889   8.1244  64.6321   C.3       1 LZB1299   0.0000
     4 N4      29.8287   6.7670  65.8080   N.pl3     1 LZB1299   0.0000
     5 C5      28.7112   6.6987  64.9575   C.2       1 LZB1299   0.0000
     6 C6      28.2486   7.8151  64.2660   C.2       1 LZB1299   0.0000
     7 C7      27.1500   7.6459  63.4283   C.2       1 LZB1299   0.0000
     8 CL8     26.5216   8.9941  62.5483   Cl        1 LZB1299   0.0000
     9 N9      26.5143   6.4898  63.2272   N.2       1 LZB1299   0.0000
    10 C10     26.9509   5.4204  63.9092   C.2       1 LZB1299   0.0000
    11 C11     26.5128   4.1159  63.9453   C.2       1 LZB1299   0.0000
    12 C12     25.4144   3.6043  63.2021   C.1       1 LZB1299   0.0000
    13 N13     24.5364   3.1936  62.5983   N.1       1 LZB1299   0.0000
    14 C14     27.3728   3.4383  64.7968   C.2       1 LZB1299   0.0000
    15 N15     28.3236   4.2814  65.3078   N.2       1 LZB1299   0.0000
    16 N16     28.0263   5.5018  64.7694   N.pl3     1 LZB1299   0.0000
    17 H1      27.3014   2.3766  65.0283   H         1 LZB1299   0.0000
    18 H2      32.1736   7.2817  64.5485   H         1 LZB1299   0.0000
    19 H3      30.8347   8.1482  63.7619   H         1 LZB1299   0.0000
    20 H4      32.0584   9.0512  64.6836   H         1 LZB1299   0.0000
    21 H5      30.0717   5.9597  66.3733   H         1 LZB1299   0.0000
    22 H6      32.0780   8.8582  67.2282   H         1 LZB1299   0.0000
    23 H7      30.8698   7.8250  68.0251   H         1 LZB1299   0.0000
    24 H8      32.1933   7.0887  67.0931   H         1 LZB1299   0.0000
    25 H9      29.9826   8.8322  65.9678   H         1 LZB1299   0.0000
    26 H10     28.7292   8.7860  64.3766   H         1 LZB1299   0.0000
@<TRIPOS>BOND
     1     1     2    1
     2     2     3    1
     3     2     4    1
     4     4     5    1
     5     5     6    2
     6     5    16    1
     7     6     7    1
     8     7     8    1
     9     7     9    2
    10     9    10    1
    11    10    11    2
    12    10    16    1
    13    11    12    1
    14    11    14    1
    15    12    13    3
    16    14    15    2
    17    15    16    1
    18    14    17    1
    19     3    18    1
    20     3    19    1
    21     3    20    1
    22     4    21    1
    23     1    22    1
    24     1    23    1
    25     1    24    1
    26     2    25    1
    27     6    26    1
@<TRIPOS>SUBSTRUCTURE
     1 LZB1299     1 GROUP             0 A     LZB     0  
@<TRIPOS>SET
CCDC_LIGAND STATIC ATOMS
26 1 2 3 4 5 6 7 8 9 \
10 11 12 13 14 15 16 17 18 19 \
20 21 22 23 24 25 26 
@<TRIPOS>MOLECULE
A:1RO301
    37    40     1     0     1
SMALL
NO_CHARGES
****
Generated from the CSD

@<TRIPOS>ATOM
     1 O1      26.9801   7.7139  61.7125   O.2       1 1RO301   0.0000
     2 C13     25.7962   7.7293  61.2296   C.2       1 1RO301   0.0000
     3 N2      25.5704   8.5745  60.2445   N.2       1 1RO301   0.0000
     4 C15     24.2974   8.4816  59.8399   C.2       1 1RO301   0.0000
     5 N3      23.9533   9.3252  58.8523   N.pl3     1 1RO301   0.0000
     6 C18     24.8588  10.4326  58.5298   C.3       1 1RO301   0.0000
     7 C19     25.6971  10.9360  59.6986   C.2       1 1RO301   0.0000
     8 C23     27.0603  10.9245  59.9970   C.2       1 1RO301   0.0000
     9 C22     27.3678  11.5141  61.2329   C.2       1 1RO301   0.0000
    10 C21     26.2857  12.0144  61.9584   C.2       1 1RO301   0.0000
    11 S2      24.8681  11.7012  61.0097   S.3       1 1RO301   0.0000
    12 S1      23.3139   7.3013  60.6756   S.3       1 1RO301   0.0000
    13 C12     24.6743   6.8659  61.6750   C.2       1 1RO301   0.0000
    14 C11     24.7008   5.8466  62.7600   C.2       1 1RO301   0.0000
    15 C1      26.0059   5.6740  63.4566   C.ar      1 1RO301   0.0000
    16 C6      26.4226   4.4356  63.9551   C.ar      1 1RO301   0.0000
    17 C5      27.6618   4.2996  64.5950   C.ar      1 1RO301   0.0000
    18 C4      28.5089   5.3972  64.7445   C.ar      1 1RO301   0.0000
    19 N1      29.7145   5.3085  65.3551   N.ar      1 1RO301   0.0000
    20 C9      30.5079   6.3883  65.4838   C.ar      1 1RO301   0.0000
    21 C8      30.1312   7.6467  65.0028   C.ar      1 1RO301   0.0000
    22 C7      28.9038   7.8185  64.3623   C.ar      1 1RO301   0.0000
    23 C3      28.0710   6.7126  64.2203   C.ar      1 1RO301   0.0000
    24 C2      26.8308   6.7962  63.6036   C.ar      1 1RO301   0.0000
    25 H1      23.8208   5.2636  63.0276   H         1 1RO301   0.0000
    26 H2      23.0858   9.1987  58.3407   H         1 1RO301   0.0000
    27 H3      24.2593  11.2635  58.1607   H         1 1RO301   0.0000
    28 H4      25.5370  10.0981  57.7462   H         1 1RO301   0.0000
    29 H5      27.8128  10.4990  59.3347   H         1 1RO301   0.0000
    30 H6      28.3898  11.5774  61.6036   H         1 1RO301   0.0000
    31 H7      26.3239  12.5051  62.9298   H         1 1RO301   0.0000
    32 H8      25.7761   3.5662  63.8446   H         1 1RO301   0.0000
    33 H9      27.9663   3.3273  64.9794   H         1 1RO301   0.0000
    34 H10     31.4724   6.2789  65.9774   H         1 1RO301   0.0000
    35 H11     30.7997   8.4970  65.1291   H         1 1RO301   0.0000
    36 H12     28.6047   8.7943  63.9825   H         1 1RO301   0.0000
    37 H13     26.4903   7.7586  63.2244   H         1 1RO301   0.0000
@<TRIPOS>BOND
     1     1     2    2
     2     2     3    1
     3     2    13    1
     4     3     4    2
     5     4     5    1
     6     4    12    1
     7     5     6    1
     8     6     7    1
     9     7     8    2
    10     7    11    1
    11     8     9    1
    12     9    10    2
    13    10    11    1
    14    12    13    1
    15    13    14    2
    16    14    15    1
    17    15    16   ar
    18    15    24   ar
    19    16    17   ar
    20    17    18   ar
    21    18    19   ar
    22    18    23   ar
    23    19    20   ar
    24    20    21   ar
    25    21    22   ar
    26    22    23   ar
    27    23    24   ar
    28    14    25    1
    29     5    26    1
    30     6    27    1
    31     6    28    1
    32     8    29    1
    33     9    30    1
    34    10    31    1
    35    16    32    1
    36    17    33    1
    37    20    34    1
    38    21    35    1
    39    22    36    1
    40    24    37    1
@<TRIPOS>SUBSTRUCTURE
     1 1RO301      1 GROUP             0 A     1RO     0  
@<TRIPOS>SET
CCDC_LIGAND STATIC ATOMS
37 1 2 3 4 5 6 7 8 9 \
10 11 12 13 14 15 16 17 18 19 \
20 21 22 23 24 25 26 27 28 29 \
30 31 32 33 34 35 36 37 
@<TRIPOS>MOLECULE
A:5SC501
    43    46     1     0     1
SMALL
NO_CHARGES
****
Generated from the CSD

@<TRIPOS>ATOM
     1 C01     26.4495   4.2304  63.8619   C.2       1 5SC501   0.0000
     2 C02     26.8823   5.5324  63.7422   C.2       1 5SC501   0.0000
     3 N03     27.9956   5.6249  64.4707   N.pl3     1 5SC501   0.0000
     4 N04     28.3127   4.4462  65.1005   N.2       1 5SC501   0.0000
     5 C05     27.3792   3.5884  64.7188   C.2       1 5SC501   0.0000
     6 N06     26.3653   6.5758  63.0012   N.2       1 5SC501   0.0000
     7 C07     27.0717   7.6787  63.0275   C.2       1 5SC501   0.0000
     8 C08     28.3102   7.7660  63.6865   C.2       1 5SC501   0.0000
     9 C09     28.7833   6.7134  64.4224   C.2       1 5SC501   0.0000
    10 N10     29.9897   6.6275  65.0752   N.pl3     1 5SC501   0.0000
    11 C11     26.5882   8.8301  62.2715   C.ar      1 5SC501   0.0000
    12 C12     31.0940   7.5853  64.7293   C.3       1 5SC501   0.0000
    13 C13     31.2563   8.6213  65.8426   C.ar      1 5SC501   0.0000
    14 C14     31.2890   8.2587  67.1637   C.ar      1 5SC501   0.0000
    15 N15     31.4178   9.2163  68.2628   N.ar      1 5SC501   0.0000
    16 C16     31.5229  10.6166  67.8700   C.ar      1 5SC501   0.0000
    17 C17     31.4990  10.9992  66.5507   C.ar      1 5SC501   0.0000
    18 C18     31.3732  10.0194  65.5238   C.ar      1 5SC501   0.0000
    19 C19     26.2979   8.7386  60.8886   C.ar      1 5SC501   0.0000
    20 C20     25.8441   9.8921  60.2166   C.ar      1 5SC501   0.0000
    21 C21     25.7160  11.0848  60.8904   C.ar      1 5SC501   0.0000
    22 C22     25.9693  11.1769  62.2572   C.ar      1 5SC501   0.0000
    23 C23     26.4279  10.0486  62.9469   C.ar      1 5SC501   0.0000
    24 BR24    24.9872   3.4337  62.9999   Br        1 5SC501   0.0000
    25 C25     26.4388   7.4439  60.1140   C.3       1 5SC501   0.0000
    26 O26     31.3788   8.8338  69.5288   O.3       1 5SC501   0.0000
    27 H1      32.1164   8.1924  69.7037   H         1 5SC501   0.0000
    28 H2      25.7838   6.6891  60.5464   H         1 5SC501   0.0000
    29 H3      26.1629   7.6113  59.0739   H         1 5SC501   0.0000
    30 H4      27.4712   7.1009  60.1650   H         1 5SC501   0.0000
    31 H5      26.6604  10.1171  64.0086   H         1 5SC501   0.0000
    32 H6      25.8121  12.1172  62.7837   H         1 5SC501   0.0000
    33 H7      25.4101  11.9756  60.3437   H         1 5SC501   0.0000
    34 H8      25.5936   9.8387  59.1582   H         1 5SC501   0.0000
    35 H9      31.3653  10.3338  64.4812   H         1 5SC501   0.0000
    36 H10     31.5765  12.0535  66.2892   H         1 5SC501   0.0000
    37 H11     31.6228  11.3783  68.6418   H         1 5SC501   0.0000
    38 H12     27.3322   2.5426  65.0191   H         1 5SC501   0.0000
    39 H13     31.2152   7.2003  67.4090   H         1 5SC501   0.0000
    40 H14     28.8985   8.6793  63.6109   H         1 5SC501   0.0000
    41 H15     30.1340   5.9196  65.7882   H         1 5SC501   0.0000
    42 H16     30.8519   8.0931  63.7968   H         1 5SC501   0.0000
    43 H17     32.0256   7.0340  64.6111   H         1 5SC501   0.0000
@<TRIPOS>BOND
     1     1     2    2
     2     1     5    1
     3     1    24    1
     4     2     3    1
     5     2     6    1
     6     3     4    1
     7     3     9    1
     8     4     5    2
     9     6     7    2
    10     7     8    1
    11     7    11    1
    12     8     9    2
    13     9    10    1
    14    10    12    1
    15    11    19   ar
    16    11    23   ar
    17    12    13    1
    18    13    14   ar
    19    13    18   ar
    20    14    15   ar
    21    15    16   ar
    22    15    26    1
    23    16    17   ar
    24    17    18   ar
    25    19    20   ar
    26    19    25    1
    27    20    21   ar
    28    21    22   ar
    29    22    23   ar
    30    26    27    1
    31    25    28    1
    32    25    29    1
    33    25    30    1
    34    23    31    1
    35    22    32    1
    36    21    33    1
    37    20    34    1
    38    18    35    1
    39    17    36    1
    40    16    37    1
    41     5    38    1
    42    14    39    1
    43     8    40    1
    44    10    41    1
    45    12    42    1
    46    12    43    1
@<TRIPOS>SUBSTRUCTURE
     1 5SC501      1 GROUP             0 A     5SC     0  
@<TRIPOS>SET
CCDC_LIGAND STATIC ATOMS
43 1 2 3 4 5 6 7 8 9 \
10 11 12 13 14 15 16 17 18 19 \
20 21 22 23 24 25 26 27 28 29 \
30 31 32 33 34 35 36 37 38 39 \
40 41 42 43 
@<TRIPOS>MOLECULE
A:Z19486
    21    22     1     0     1
SMALL
NO_CHARGES
****
Generated from the CSD

@<TRIPOS>ATOM
     1 N1      28.5766   4.2050  65.5848   N.2       1 Z19486   0.0000
     2 N2      27.6427   3.3510  65.0907   N.pl3     1 Z19486   0.0000
     3 C3      26.7638   3.9385  64.1980   C.ar      1 Z19486   0.0000
     4 C4      27.2073   5.3151  64.1288   C.ar      1 Z19486   0.0000
     5 C5      28.3429   5.3774  65.0302   C.2       1 Z19486   0.0000
     6 C6      29.1221   6.6384  65.2686   C.2       1 Z19486   0.0000
     7 N7      30.1342   6.5258  66.1309   N.am      1 Z19486   0.0000
     8 N8      30.9272   7.6205  66.4505   N.3       1 Z19486   0.0000
     9 O9      28.8312   7.6993  64.7043   O.2       1 Z19486   0.0000
    10 C10     25.6487   3.4547  63.4429   C.ar      1 Z19486   0.0000
    11 C11     24.9433   4.3577  62.5844   C.ar      1 Z19486   0.0000
    12 C12     25.3552   5.7256  62.4939   C.ar      1 Z19486   0.0000
    13 C13     26.4765   6.2014  63.2579   C.ar      1 Z19486   0.0000
    14 H1      24.0945   4.0043  62.0009   H         1 Z19486   0.0000
    15 H2      24.8155   6.4108  61.8418   H         1 Z19486   0.0000
    16 H3      30.3499   8.3490  66.8582   H         1 Z19486   0.0000
    17 H4      31.6388   7.3396  67.1175   H         1 Z19486   0.0000
    18 H5      25.3406   2.4130  63.5201   H         1 Z19486   0.0000
    19 H6      30.3275   5.6265  66.5600   H         1 Z19486   0.0000
    20 H7      26.7775   7.2449  63.1776   H         1 Z19486   0.0000
    21 H8      27.5942   2.3715  65.3524   H         1 Z19486   0.0000
@<TRIPOS>BOND
     1     1     2    1
     2     1     5    2
     3     2     3    1
     4     3     4   ar
     5     3    10   ar
     6     4     5    1
     7     4    13   ar
     8     5     6    1
     9     6     7   am
    10     6     9    2
    11     7     8    1
    12    10    11   ar
    13    11    12   ar
    14    12    13   ar
    15    11    14    1
    16    12    15    1
    17     8    16    1
    18     8    17    1
    19    10    18    1
    20     7    19    1
    21    13    20    1
    22     2    21    1
@<TRIPOS>SUBSTRUCTURE
     1 Z19486      1 GROUP             0 A     Z19     0  
@<TRIPOS>SET
CCDC_LIGAND STATIC ATOMS
21 1 2 3 4 5 6 7 8 9 \
10 11 12 13 14 15 16 17 18 19 \
20 21 
@<TRIPOS>MOLECULE
A:1YG301
    50    52     1     0     1
SMALL
NO_CHARGES
****
Generated from the CSD

@<TRIPOS>ATOM
     1 C5      24.8969   7.9296  61.1368   C.2       1 1YG301   0.0000
     2 C7      23.5394   7.6814  61.2837   C.2       1 1YG301   0.0000
     3 C8      25.6723   9.2131  60.8400   C.3       1 1YG301   0.0000
     4 C9      26.2815   4.6092  64.4680   C.2       1 1YG301   0.0000
     5 C10     24.7698  10.4353  61.0006   C.3       1 1YG301   0.0000
     6 C11     26.1994   9.1775  59.4066   C.3       1 1YG301   0.0000
     7 C12     26.8482   9.3487  61.8073   C.3       1 1YG301   0.0000
     8 C14     27.1655   3.7459  65.0294   C.2       1 1YG301   0.0000
     9 C15     28.3762   5.5525  65.2471   C.2       1 1YG301   0.0000
    10 N4      23.3452   6.3710  61.6238   N.2       1 1YG301   0.0000
    11 C1      24.5650   5.8432  61.6724   C.2       1 1YG301   0.0000
    12 O2      25.5526   6.7385  61.3712   O.3       1 1YG301   0.0000
    13 C3      24.9260   4.4789  62.1024   C.3       1 1YG301   0.0000
    14 S6      24.6393   4.4193  63.8772   S.3       1 1YG301   0.0000
    15 N16     28.3396   4.2739  65.4967   N.2       1 1YG301   0.0000
    16 N17     29.5467   6.2542  65.4674   N.am      1 1YG301   0.0000
    17 C18     29.8202   7.5204  65.0256   C.2       1 1YG301   0.0000
    18 O20     29.0337   8.1904  64.3620   O.2       1 1YG301   0.0000
    19 C19     31.2195   8.0281  65.3670   C.3       1 1YG301   0.0000
    20 C22     31.9081   8.5348  64.0992   C.3       1 1YG301   0.0000
    21 C21     31.0973   9.0781  66.4644   C.ar      1 1YG301   0.0000
    22 C24     30.7890  10.4048  66.1798   C.ar      1 1YG301   0.0000
    23 C26     30.7709  11.3597  67.1853   C.ar      1 1YG301   0.0000
    24 C27     31.0432  10.9973  68.4904   C.ar      1 1YG301   0.0000
    25 C25     31.3127   9.6771  68.7911   C.ar      1 1YG301   0.0000
    26 C23     31.3408   8.7231  67.7845   C.ar      1 1YG301   0.0000
    27 S13     26.9660   6.2165  64.4740   S.3       1 1YG301   0.0000
    28 H1      25.3630   9.0932  58.7142   H         1 1YG301   0.0000
    29 H2      26.7509  10.0935  59.1997   H         1 1YG301   0.0000
    30 H3      26.8600   8.3205  59.2839   H         1 1YG301   0.0000
    31 H4      31.3244   9.3473  63.6691   H         1 1YG301   0.0000
    32 H5      32.9051   8.8957  64.3471   H         1 1YG301   0.0000
    33 H6      31.9850   7.7221  63.3784   H         1 1YG301   0.0000
    34 H7      31.5561   7.6848  68.0323   H         1 1YG301   0.0000
    35 H8      22.7489   8.4181  61.1486   H         1 1YG301   0.0000
    36 H9      30.2695   5.7876  66.0060   H         1 1YG301   0.0000
    37 H10     26.9509   2.6810  65.1048   H         1 1YG301   0.0000
    38 H11     24.3946  10.4778  62.0220   H         1 1YG301   0.0000
    39 H12     25.3396  11.3380  60.7852   H         1 1YG301   0.0000
    40 H13     23.9320  10.3612  60.3089   H         1 1YG301   0.0000
    41 H14     31.5039   9.3837  69.8222   H         1 1YG301   0.0000
    42 H15     30.5415  12.3970  66.9458   H         1 1YG301   0.0000
    43 H16     31.7985   7.1928  65.7582   H         1 1YG301   0.0000
    44 H17     31.0453  11.7493  69.2780   H         1 1YG301   0.0000
    45 H18     30.5593  10.6964  65.1561   H         1 1YG301   0.0000
    46 H19     25.9735   4.2785  61.8823   H         1 1YG301   0.0000
    47 H20     24.3016   3.7454  61.5944   H         1 1YG301   0.0000
    48 H21     27.5130   8.4938  61.6928   H         1 1YG301   0.0000
    49 H22     27.3944  10.2651  61.5886   H         1 1YG301   0.0000
    50 H23     26.4750   9.3839  62.8298   H         1 1YG301   0.0000
@<TRIPOS>BOND
     1     1     2    2
     2     1     3    1
     3     1    12    1
     4     2    10    1
     5     3     5    1
     6     3     6    1
     7     3     7    1
     8     4     8    2
     9     4    14    1
    10     4    27    1
    11     8    15    1
    12     9    15    2
    13     9    16    1
    14     9    27    1
    15    10    11    2
    16    11    12    1
    17    11    13    1
    18    13    14    1
    19    16    17   am
    20    17    18    2
    21    17    19    1
    22    19    20    1
    23    19    21    1
    24    21    22   ar
    25    21    26   ar
    26    22    23   ar
    27    23    24   ar
    28    24    25   ar
    29    25    26   ar
    30     6    28    1
    31     6    29    1
    32     6    30    1
    33    20    31    1
    34    20    32    1
    35    20    33    1
    36    26    34    1
    37     2    35    1
    38    16    36    1
    39     8    37    1
    40     5    38    1
    41     5    39    1
    42     5    40    1
    43    25    41    1
    44    23    42    1
    45    19    43    1
    46    24    44    1
    47    22    45    1
    48    13    46    1
    49    13    47    1
    50     7    48    1
    51     7    49    1
    52     7    50    1
@<TRIPOS>SUBSTRUCTURE
     1 1YG301      1 GROUP             0 A     1YG     0  
@<TRIPOS>SET
CCDC_LIGAND STATIC ATOMS
50 1 2 3 4 5 6 7 8 9 \
10 11 12 13 14 15 16 17 18 19 \
20 21 22 23 24 25 26 27 28 29 \
30 31 32 33 34 35 36 37 38 39 \
40 41 42 43 44 45 46 47 48 49 \
50 
@<TRIPOS>MOLECULE
A:5BN301
    38    41     1     0     1
SMALL
NO_CHARGES
****
Generated from the CSD

@<TRIPOS>ATOM
     1 N22     25.8090   9.5581  58.7120   N.3       1 5BN301   0.0000
     2 C21     25.5284  10.4781  59.8201   C.3       1 5BN301   0.0000
     3 C20     25.8453   9.8497  61.2070   C.3       1 5BN301   0.0000
     4 N19     25.4353   8.4164  61.4025   N.pl3     1 5BN301   0.0000
     5 C7      26.0450   7.4336  62.2838   C.ar      1 5BN301   0.0000
     6 C8      27.2903   7.8117  62.9000   C.ar      1 5BN301   0.0000
     7 C9      28.0897   6.9654  63.8302   C.ar      1 5BN301   0.0000
     8 C14     29.3355   7.4867  64.3580   C.2       1 5BN301   0.0000
     9 C15     29.9367   8.7584  64.1051   C.2       1 5BN301   0.0000
    10 C16     31.1444   8.8402  64.8184   C.2       1 5BN301   0.0000
    11 C17     31.2901   7.6512  65.4972   C.2       1 5BN301   0.0000
    12 N18     30.1919   6.8689  65.1994   N.pl3     1 5BN301   0.0000
    13 C10     27.4918   5.6568  64.0914   C.ar      1 5BN301   0.0000
    14 C11     27.9172   4.4859  64.9503   C.2       1 5BN301   0.0000
    15 O13     28.9027   4.3724  65.6526   O.2       1 5BN301   0.0000
    16 N12     26.9275   3.4873  64.7894   N.am      1 5BN301   0.0000
    17 C6      25.9502   3.9761  63.9044   C.ar      1 5BN301   0.0000
    18 C1      24.7790   3.4045  63.4063   C.ar      1 5BN301   0.0000
    19 C2      23.9623   4.1609  62.5012   C.ar      1 5BN301   0.0000
    20 C3      24.2846   5.4727  62.0806   C.ar      1 5BN301   0.0000
    21 F       23.4450   6.0915  61.2280   F         1 5BN301   0.0000
    22 C4      25.5055   6.1046  62.5777   C.ar      1 5BN301   0.0000
    23 C5      26.2945   5.3060  63.4845   C.ar      1 5BN301   0.0000
    24 H1      25.3376  10.4454  61.9642   H         1 5BN301   0.0000
    25 H2      26.9219   9.9098  61.3595   H         1 5BN301   0.0000
    26 H3      29.5257   9.5370  63.4641   H         1 5BN301   0.0000
    27 H4      24.4885   2.3971  63.7007   H         1 5BN301   0.0000
    28 H5      26.9237   2.5757  65.2358   H         1 5BN301   0.0000
    29 H6      24.6413   8.0980  60.8563   H         1 5BN301   0.0000
    30 H7      25.2421   8.7224  58.8142   H         1 5BN301   0.0000
    31 H8      25.5874  10.0116  57.8314   H         1 5BN301   0.0000
    32 H9      30.0452   5.9357  65.5707   H         1 5BN301   0.0000
    33 H10     24.4740  10.7488  59.7915   H         1 5BN301   0.0000
    34 H11     26.1364  11.3728  59.6944   H         1 5BN301   0.0000
    35 H12     27.6813   8.8008  62.6663   H         1 5BN301   0.0000
    36 H13     23.0506   3.7035  62.1197   H         1 5BN301   0.0000
    37 H14     32.1187   7.3782  66.1490   H         1 5BN301   0.0000
    38 H15     31.8337   9.6832  64.8319   H         1 5BN301   0.0000
@<TRIPOS>BOND
     1     1     2    1
     2     2     3    1
     3     3     4    1
     4     4     5    1
     5     5     6   ar
     6     5    22   ar
     7     6     7   ar
     8     7     8    1
     9     7    13   ar
    10     8     9    2
    11     8    12    1
    12     9    10    1
    13    10    11    2
    14    11    12    1
    15    13    14    1
    16    13    23   ar
    17    14    15    2
    18    14    16   am
    19    16    17    1
    20    17    18   ar
    21    17    23   ar
    22    18    19   ar
    23    19    20   ar
    24    20    21    1
    25    20    22   ar
    26    22    23   ar
    27     3    24    1
    28     3    25    1
    29     9    26    1
    30    18    27    1
    31    16    28    1
    32     4    29    1
    33     1    30    1
    34     1    31    1
    35    12    32    1
    36     2    33    1
    37     2    34    1
    38     6    35    1
    39    19    36    1
    40    11    37    1
    41    10    38    1
@<TRIPOS>SUBSTRUCTURE
     1 5BN301      1 GROUP             0 A     5BN     0  
@<TRIPOS>SET
CCDC_LIGAND STATIC ATOMS
38 1 2 3 4 5 6 7 8 9 \
10 11 12 13 14 15 16 17 18 19 \
20 21 22 23 24 25 26 27 28 29 \
30 31 32 33 34 35 36 37 38 
