@<TRIPOS>MOLECULE
1FQX:A:0ZT201
    51    53     1     0     0
SMALL
NO_CHARGES
****
Generated from the CSD

@<TRIPOS>ATOM
     1 O1      22.5250  -0.6510  19.5440   O.2       1 RES1   0.0000
     2 O2      15.1130  -6.0260  13.2480   O.co2     1 RES1   0.0000
     3 O3      15.5260  -7.9070  14.2960   O.co2     1 RES1   0.0000
     4 O4      17.3440 -11.1610  12.5230   O.2       1 RES1   0.0000
     5 O5      19.8270  -3.7740  16.1690   O.2       1 RES1   0.0000
     6 O6      18.2620  -6.2480  12.2190   O.2       1 RES1   0.0000
     7 O7      19.9570   1.0640  15.8140   O.3       1 RES1   0.0000
     8 O8      23.6600   1.3220  19.0270   O.3       1 RES1   0.0000
     9 N9      16.7670  -9.9410  14.3130   N.am      1 RES1   0.0000
    10 N10     20.8840  -1.3690  14.7740   N.2       1 RES1   0.0000
    11 N11     21.5650   1.0510  18.3100   N.am      1 RES1   0.0000
    12 N12     19.5890  -4.6290  14.1000   N.am      1 RES1   0.0000
    13 N13     18.4430  -7.9240  13.6990   N.am      1 RES1   0.0000
    14 C14     24.7800   0.7300  21.1710   C.3       1 RES1   0.0000
    15 C15     25.8490   2.2690  19.5100   C.3       1 RES1   0.0000
    16 C16     25.6440  -0.1700  18.9790   C.3       1 RES1   0.0000
    17 C17     21.0640  -1.0600  16.1920   C.3       1 RES1   0.0000
    18 C18     23.4370  -7.2880  13.7050   C.2       1 RES1   0.0000
    19 C19     21.8130 -11.6740  15.2230   C.2       1 RES1   0.0000
    20 C20     19.8150   2.7470  22.6670   C.2       1 RES1   0.0000
    21 C21     23.8300  -6.7940  14.9430   C.2       1 RES1   0.0000
    22 C22     22.7530  -6.4670  12.8210   C.2       1 RES1   0.0000
    23 C23     22.3200 -11.5420  13.9440   C.2       1 RES1   0.0000
    24 C24     20.6030 -11.1000  15.5380   C.2       1 RES1   0.0000
    25 C25     20.4800   3.3490  21.6010   C.2       1 RES1   0.0000
    26 C26     18.9270   1.7030  22.4250   C.2       1 RES1   0.0000
    27 C27     16.2020  -5.8950  15.3560   C.3       1 RES1   0.0000
    28 C28     23.5390  -5.4770  15.2910   C.2       1 RES1   0.0000
    29 C29     22.4640  -5.1520  13.1760   C.2       1 RES1   0.0000
    30 C30     21.6160 -10.8320  12.9800   C.2       1 RES1   0.0000
    31 C31     19.9010 -10.3910  14.5710   C.2       1 RES1   0.0000
    32 C32     20.2520   2.8950  20.2930   C.2       1 RES1   0.0000
    33 C33     18.7070   1.2600  21.1180   C.2       1 RES1   0.0000
    34 C34     17.3020  -4.9600  14.8840   C.3       1 RES1   0.0000
    35 C35     22.5330  -3.2170  14.7990   C.3       1 RES1   0.0000
    36 C36     19.6360  -9.4810  12.2280   C.3       1 RES1   0.0000
    37 C37     19.1530   1.3260  18.6360   C.3       1 RES1   0.0000
    38 C38     22.5820   0.4610  19.0180   C.2       1 RES1   0.0000
    39 C39     15.5690  -6.6640  14.2190   C.2       1 RES1   0.0000
    40 C40     17.4120 -10.1180  13.1670   C.2       1 RES1   0.0000
    41 C41     20.1110  -3.7680  14.9680   C.2       1 RES1   0.0000
    42 C42     18.4220  -6.6360  13.3720   C.2       1 RES1   0.0000
    43 C43     19.9860  -0.0590  16.6770   C.3       1 RES1   0.0000
    44 C44     21.1210  -2.7680  14.3950   C.3       1 RES1   0.0000
    45 C45     18.6230  -5.6380  14.5090   C.3       1 RES1   0.0000
    46 C46     18.2700  -8.9550  12.6880   C.3       1 RES1   0.0000
    47 C47     20.2700   0.3900  18.1440   C.3       1 RES1   0.0000
    48 C48     22.8520  -4.6440  14.4150   C.2       1 RES1   0.0000
    49 C49     20.3960 -10.2480  13.2830   C.2       1 RES1   0.0000
    50 C50     19.3640   1.8460  20.0410   C.2       1 RES1   0.0000
    51 C51     24.9950   1.0280  19.6850   C.3       1 RES1   0.0000
@<TRIPOS>BOND
     1     1    38    2
     2     2    39    1
     3     3    39    2
     4     4    40    2
     5     5    41    2
     6     6    42    2
     7     7    43    1
     8     8    38    1
     9     8    51    1
    10     9    40   am
    11    10    17    1
    12    10    44    1
    13    11    38   am
    14    11    47    1
    15    12    41   am
    16    12    45    1
    17    13    42   am
    18    13    46    1
    19    14    51    1
    20    15    51    1
    21    16    51    1
    22    17    43    1
    23    18    21    2
    24    18    22    1
    25    19    23    2
    26    19    24    1
    27    20    25    2
    28    20    26    1
    29    21    28    1
    30    22    29    2
    31    23    30    1
    32    24    31    2
    33    25    32    1
    34    26    33    2
    35    27    34    1
    36    27    39    1
    37    28    48    2
    38    29    48    1
    39    30    49    2
    40    31    49    1
    41    32    50    2
    42    33    50    1
    43    34    45    1
    44    35    44    1
    45    35    48    1
    46    36    46    1
    47    36    49    1
    48    37    47    1
    49    37    50    1
    50    40    46    1
    51    41    44    1
    52    42    45    1
    53    43    47    1
@<TRIPOS>SUBSTRUCTURE
     1 RES1        1 GROUP             0 ****  ****    0  
@<TRIPOS>MOLECULE
4HLA:A:017200
    38    41     1     0     0
SMALL
NO_CHARGES
****
Generated from the CSD

@<TRIPOS>ATOM
     1 S1      19.0370  -4.0450  16.4340   S.o2      1 RES1   0.0000
     2 O2      18.2960  -3.0140  17.0960   O.2       1 RES1   0.0000
     3 O3      19.5740  -4.9190  17.4120   O.2       1 RES1   0.0000
     4 O4      22.5960  -1.2090  18.7700   O.2       1 RES1   0.0000
     5 O5      20.6420   0.1710  14.7030   O.3       1 RES1   0.0000
     6 O6      23.4040   3.9780  19.8070   O.3       1 RES1   0.0000
     7 O7      25.3930   2.8080  19.2850   O.3       1 RES1   0.0000
     8 O8      23.4220   0.9410  18.5280   O.3       1 RES1   0.0000
     9 N9      15.1990  -6.7720  13.1430   N.pl3     1 RES1   0.0000
    10 N10     21.5260   0.1920  17.3700   N.am      1 RES1   0.0000
    11 N11     20.2930  -3.3760  15.6530   N.3       1 RES1   0.0000
    12 C12     23.2120  -3.3260  14.6430   C.3       1 RES1   0.0000
    13 C13     22.6910  -5.0550  16.3670   C.3       1 RES1   0.0000
    14 C14     22.1120   3.3900  19.9380   C.3       1 RES1   0.0000
    15 C15     25.5700   1.3910  19.1970   C.3       1 RES1   0.0000
    16 C16     19.9040  -2.1280  14.9710   C.3       1 RES1   0.0000
    17 C17     20.8970  -4.3290  14.7070   C.3       1 RES1   0.0000
    18 C18     18.8440   1.3500  21.1740   C.2       1 RES1   0.0000
    19 C19     18.8260  -0.0050  20.8760   C.2       1 RES1   0.0000
    20 C20     18.9670   2.2770  20.1430   C.2       1 RES1   0.0000
    21 C21     18.1710  -6.1910  15.1930   C.2       1 RES1   0.0000
    22 C22     16.8820  -4.1720  15.0400   C.2       1 RES1   0.0000
    23 C23     22.2980   2.0980  20.7150   C.3       1 RES1   0.0000
    24 C24     17.2380  -6.8460  14.3940   C.2       1 RES1   0.0000
    25 C25     15.9500  -4.8210  14.2450   C.2       1 RES1   0.0000
    26 C26     18.9420  -0.4350  19.5600   C.2       1 RES1   0.0000
    27 C27     19.0820   1.8570  18.8240   C.2       1 RES1   0.0000
    28 C28     19.1920   0.0170  17.1150   C.3       1 RES1   0.0000
    29 C29     22.4790  -0.1200  18.2400   C.2       1 RES1   0.0000
    30 C30     24.4380   3.1240  20.3080   C.3       1 RES1   0.0000
    31 C31     18.0030  -4.8420  15.5080   C.2       1 RES1   0.0000
    32 C32     20.8020  -1.0110  15.4860   C.3       1 RES1   0.0000
    33 C33     24.2470   0.8250  19.6690   C.3       1 RES1   0.0000
    34 C34     16.1250  -6.1550  13.9180   C.2       1 RES1   0.0000
    35 C35     20.5020  -0.7400  16.9560   C.3       1 RES1   0.0000
    36 C36     22.3880  -4.5610  14.9570   C.3       1 RES1   0.0000
    37 C37     19.0700   0.4950  18.5370   C.2       1 RES1   0.0000
    38 C38     23.7850   1.8210  20.7090   C.3       1 RES1   0.0000
@<TRIPOS>BOND
     1     1     2    2
     2     1     3    2
     3     1    11    1
     4     1    31    1
     5     4    29    2
     6     5    32    1
     7     6    14    1
     8     6    30    1
     9     7    15    1
    10     7    30    1
    11     8    29    1
    12     8    33    1
    13     9    34    1
    14    10    29   am
    15    10    35    1
    16    11    16    1
    17    11    17    1
    18    12    36    1
    19    13    36    1
    20    14    23    1
    21    15    33    1
    22    16    32    1
    23    17    36    1
    24    18    19    2
    25    18    20    1
    26    19    26    1
    27    20    27    2
    28    21    24    2
    29    21    31    1
    30    22    25    1
    31    22    31    2
    32    23    38    1
    33    24    34    1
    34    25    34    2
    35    26    37    2
    36    27    37    1
    37    28    35    1
    38    28    37    1
    39    30    38    1
    40    32    35    1
    41    33    38    1
@<TRIPOS>SUBSTRUCTURE
     1 RES1        1 GROUP             0 ****  ****    0  
@<TRIPOS>MOLECULE
2QAK:A:1UN1001
    40    43     1     0     0
SMALL
NO_CHARGES
****
Generated from the CSD

@<TRIPOS>ATOM
     1 S1      18.1960  -0.5780  18.4850   S.3       1 RES1   0.0000
     2 O2      22.0540  -1.1480  19.0980   O.2       1 RES1   0.0000
     3 O3      18.9290  -4.0100  16.6180   O.2       1 RES1   0.0000
     4 O4      20.7240   0.3340  14.7780   O.3       1 RES1   0.0000
     5 O5      26.2720   2.3500  19.4860   O.3       1 RES1   0.0000
     6 N6      21.3470   0.2430  17.4850   N.am      1 RES1   0.0000
     7 N7      17.8810  -4.7310  14.7210   N.am      1 RES1   0.0000
     8 N8      21.0940  -3.2480  15.0390   N.3       1 RES1   0.0000
     9 C9      24.9590   0.0280  18.2970   C.3       1 RES1   0.0000
    10 C10     16.0490  -3.4250  15.7160   C.3       1 RES1   0.0000
    11 C11     16.4370  -5.7640  16.4460   C.3       1 RES1   0.0000
    12 C12     15.5730  -5.3080  14.1700   C.3       1 RES1   0.0000
    13 C13     19.0020  -0.1890  16.9520   C.3       1 RES1   0.0000
    14 C14     20.2770  -2.0740  14.7530   C.3       1 RES1   0.0000
    15 C15     22.4550  -3.3060  14.4850   C.3       1 RES1   0.0000
    16 C16     18.8180   3.0970  21.0270   C.2       1 RES1   0.0000
    17 C17     18.7250   1.8440  21.6260   C.2       1 RES1   0.0000
    18 C18     18.7210   3.2150  19.6390   C.2       1 RES1   0.0000
    19 C19     24.5490  -5.7050  16.6550   C.3       1 RES1   0.0000
    20 C20     23.7720  -7.0120  16.4950   C.3       1 RES1   0.0000
    21 C21     22.8440   3.2160  20.4060   C.2       1 RES1   0.0000
    22 C22     18.5360   0.7160  20.8230   C.2       1 RES1   0.0000
    23 C23     18.5340   2.0750  18.8510   C.2       1 RES1   0.0000
    24 C24     24.2360   3.2790  20.2780   C.2       1 RES1   0.0000
    25 C25     23.6500  -4.4950  16.3910   C.3       1 RES1   0.0000
    26 C26     23.0620  -7.1120  15.1400   C.3       1 RES1   0.0000
    27 C27     22.1200   2.1440  19.8790   C.2       1 RES1   0.0000
    28 C28     21.0010  -5.6720  15.3820   C.3       1 RES1   0.0000
    29 C29     22.0220  -0.0360  18.5940   C.2       1 RES1   0.0000
    30 C30     18.9530  -4.3710  15.4530   C.2       1 RES1   0.0000
    31 C31     18.4320   0.8160  19.4340   C.2       1 RES1   0.0000
    32 C32     20.9320  -0.8910  15.4690   C.3       1 RES1   0.0000
    33 C33     24.9560   2.2870  19.6110   C.2       1 RES1   0.0000
    34 C34     20.4340  -0.7020  16.8880   C.3       1 RES1   0.0000
    35 C35     20.2880  -4.4540  14.7930   C.3       1 RES1   0.0000
    36 C36     23.1940  -4.5690  14.9330   C.3       1 RES1   0.0000
    37 C37     22.3530  -5.8260  14.6970   C.3       1 RES1   0.0000
    38 C38     24.2380   1.1380  19.0300   C.2       1 RES1   0.0000
    39 C39     22.7740   1.1090  19.1960   C.2       1 RES1   0.0000
    40 C40     16.5140  -4.8060  15.2600   C.3       1 RES1   0.0000
@<TRIPOS>BOND
     1     1    13    1
     2     1    31    1
     3     2    29    2
     4     3    30    2
     5     4    32    1
     6     5    33    1
     7     6    29   am
     8     6    34    1
     9     7    30   am
    10     7    40    1
    11     8    14    1
    12     8    15    1
    13     8    35    1
    14     9    38    1
    15    10    40    1
    16    11    40    1
    17    12    40    1
    18    13    34    1
    19    14    32    1
    20    15    36    1
    21    16    17    2
    22    16    18    1
    23    17    22    1
    24    18    23    2
    25    19    20    1
    26    19    25    1
    27    20    26    1
    28    21    24    2
    29    21    27    1
    30    22    31    2
    31    23    31    1
    32    24    33    1
    33    25    36    1
    34    26    37    1
    35    27    39    2
    36    28    35    1
    37    28    37    1
    38    29    39    1
    39    30    35    1
    40    32    34    1
    41    33    38    2
    42    36    37    1
    43    38    39    1
@<TRIPOS>SUBSTRUCTURE
     1 RES1        1 GROUP             0 ****  ****    0  
@<TRIPOS>MOLECULE
4HE9:A:G52401
    42    46     1     0     0
SMALL
NO_CHARGES
****
Generated from the CSD

@<TRIPOS>ATOM
     1 C1      25.7140   2.2920  20.0360   C.2       1 RES1   0.0000
     2 C2      25.9570   1.6310  18.8260   C.2       1 RES1   0.0000
     3 C3      25.1200   0.6140  18.3930   C.2       1 RES1   0.0000
     4 C4      24.0680   0.2050  19.2100   C.2       1 RES1   0.0000
     5 C5      23.8740   0.8110  20.4370   C.2       1 RES1   0.0000
     6 C6      24.7180   1.8160  20.8870   C.2       1 RES1   0.0000
     7 S7      22.9220  -1.0130  18.6710   S.o2      1 RES1   0.0000
     8 O8      23.7300  -1.8940  17.7950   O.2       1 RES1   0.0000
     9 O9      22.2870  -1.5640  19.8300   O.2       1 RES1   0.0000
    10 N10     21.7930  -0.3050  17.7470   N.pl3     1 RES1   0.0000
    11 C11     21.0130   0.7390  18.4070   C.3       1 RES1   0.0000
    12 C12     19.5120   0.7060  18.0340   C.3       1 RES1   0.0000
    13 C13     18.8890  -0.6240  18.4600   C.3       1 RES1   0.0000
    14 C14     18.8240   1.8670  18.7830   C.3       1 RES1   0.0000
    15 C15     22.0160  -0.1380  16.3220   C.3       1 RES1   0.0000
    16 C16     21.1740  -1.0220  15.4300   C.3       1 RES1   0.0000
    17 O17     21.1940  -0.5820  14.0780   O.3       1 RES1   0.0000
    18 C18     21.4320  -2.5030  15.5000   C.3       1 RES1   0.0000
    19 N19     20.3620  -3.2500  14.8790   N.am      1 RES1   0.0000
    20 C20     19.4730  -4.0380  15.4880   C.2       1 RES1   0.0000
    21 O21     19.4610  -4.2930  16.7210   O.2       1 RES1   0.0000
    22 O22     18.5700  -4.5410  14.6210   O.3       1 RES1   0.0000
    23 C23     17.6170  -5.5130  15.1560   C.3       1 RES1   0.0000
    24 C24     16.2750  -5.1880  14.5000   C.3       1 RES1   0.0000
    25 O25     16.3320  -5.7910  13.2130   O.3       1 RES1   0.0000
    26 C26     17.2590  -6.8160  13.1830   C.3       1 RES1   0.0000
    27 O27     18.2940  -6.5300  12.2820   O.3       1 RES1   0.0000
    28 C28     19.5750  -6.6660  12.8550   C.3       1 RES1   0.0000
    29 C29     19.3790  -7.1650  14.2740   C.3       1 RES1   0.0000
    30 C30     17.9090  -6.9070  14.5440   C.3       1 RES1   0.0000
    31 C31     22.7550  -2.9320  14.8750   C.3       1 RES1   0.0000
    32 C32     22.8110  -5.3370  14.0460   C.2       1 RES1   0.0000
    33 C33     22.9830  -6.6750  14.2770   C.2       1 RES1   0.0000
    34 C34     23.3120  -7.1210  15.5360   C.2       1 RES1   0.0000
    35 C35     23.5390  -6.2500  16.6070   C.2       1 RES1   0.0000
    36 C36     23.3430  -4.9150  16.3690   C.2       1 RES1   0.0000
    37 C37     22.9640  -4.4360  15.1080   C.2       1 RES1   0.0000
    38 O38     26.4780   3.3760  20.2930   O.3       1 RES1   0.0000
    39 C39     26.3220   3.9650  21.5620   C.2       1 RES1   0.0000
    40 O40     20.3170  -7.6340  12.1210   O.3       1 RES1   0.0000
    41 C41     19.7330  -8.8450  12.6250   C.3       1 RES1   0.0000
    42 C42     19.7260  -8.6620  14.1380   C.3       1 RES1   0.0000
@<TRIPOS>BOND
     1     1     2    2
     2     1     6    1
     3     1    38    1
     4     2     3    1
     5     3     4    2
     6     4     5    1
     7     4     7    1
     8     5     6    2
     9     7     8    2
    10     7     9    2
    11     7    10    1
    12    10    11    1
    13    10    15    1
    14    11    12    1
    15    12    13    1
    16    12    14    1
    17    15    16    1
    18    16    17    1
    19    16    18    1
    20    18    19    1
    21    18    31    1
    22    19    20   am
    23    20    21    2
    24    20    22    1
    25    22    23    1
    26    23    24    1
    27    23    30    1
    28    24    25    1
    29    25    26    1
    30    26    27    1
    31    26    30    1
    32    27    28    1
    33    28    29    1
    34    28    40    1
    35    29    30    1
    36    29    42    1
    37    31    37    1
    38    32    33    2
    39    32    37    1
    40    33    34    1
    41    34    35    2
    42    35    36    1
    43    36    37    2
    44    38    39    1
    45    40    41    1
    46    41    42    1
@<TRIPOS>SUBSTRUCTURE
     1 RES1        1 GROUP             0 ****  ****    0  
@<TRIPOS>MOLECULE
2PQZ:A:G0G2501
    39    43     1     0     0
SMALL
NO_CHARGES
****
Generated from the CSD

@<TRIPOS>ATOM
     1 S1      18.7480  -2.9460  18.5240   S.o2      1 RES1   0.0000
     2 S2      23.5890  -1.5890  18.5440   S.o2      1 RES1   0.0000
     3 O3      19.8550  -3.8600  18.7100   O.2       1 RES1   0.0000
     4 O4      17.9070  -2.5230  19.6560   O.2       1 RES1   0.0000
     5 O5      22.5670  -2.0280  19.5020   O.2       1 RES1   0.0000
     6 O6      24.7700  -2.4590  18.3580   O.2       1 RES1   0.0000
     7 N7      20.8940  -0.3610  14.7340   N.2       1 RES1   0.0000
     8 N8      19.2800  -1.5090  17.7090   N.pl3     1 RES1   0.0000
     9 N9      22.9070  -1.3020  17.0230   N.pl3     1 RES1   0.0000
    10 C10     20.0710  -1.4320  15.3400   C.3       1 RES1   0.0000
    11 C11     21.4790   0.4570  15.8370   C.3       1 RES1   0.0000
    12 C12     18.4470  -0.3010  17.8750   C.3       1 RES1   0.0000
    13 C13     23.5700  -1.9070  15.8280   C.3       1 RES1   0.0000
    14 C14     15.9480  -4.3250  15.1110   C.2       1 RES1   0.0000
    15 C15     25.6690   2.1930  20.0880   C.2       1 RES1   0.0000
    16 C16     19.8380   2.7150  20.7310   C.2       1 RES1   0.0000
    17 C17     22.0160  -5.8410  14.7160   C.2       1 RES1   0.0000
    18 C18     17.2360  -4.9080  15.2380   C.2       1 RES1   0.0000
    19 C19     15.5010  -3.3310  16.0400   C.2       1 RES1   0.0000
    20 C20     24.5790   1.6480  20.7930   C.2       1 RES1   0.0000
    21 C21     26.1420   1.5490  18.9070   C.2       1 RES1   0.0000
    22 C22     20.0870   1.3380  20.9880   C.2       1 RES1   0.0000
    23 C23     19.1150   3.0900  19.5680   C.2       1 RES1   0.0000
    24 C24     22.3530  -5.5610  16.0700   C.2       1 RES1   0.0000
    25 C25     22.2720  -4.8810  13.6870   C.2       1 RES1   0.0000
    26 C26     18.0930  -4.4870  16.3170   C.2       1 RES1   0.0000
    27 C27     16.3470  -2.9370  17.1090   C.2       1 RES1   0.0000
    28 C28     23.9370   0.4900  20.2830   C.2       1 RES1   0.0000
    29 C29     25.5100   0.3910  18.3800   C.2       1 RES1   0.0000
    30 C30     19.6560   0.3580  20.0550   C.2       1 RES1   0.0000
    31 C31     18.7180   2.1120  18.6280   C.2       1 RES1   0.0000
    32 C32     22.8410  -4.2830  16.4690   C.2       1 RES1   0.0000
    33 C33     22.7130  -3.5990  14.1030   C.2       1 RES1   0.0000
    34 C34     17.6510  -3.4820  17.2280   C.2       1 RES1   0.0000
    35 C35     24.4070  -0.1480  19.0890   C.2       1 RES1   0.0000
    36 C36     20.4760  -1.5780  16.8350   C.3       1 RES1   0.0000
    37 C37     21.6140  -0.4860  17.0490   C.3       1 RES1   0.0000
    38 C38     18.9440   0.7310  18.8820   C.2       1 RES1   0.0000
    39 C39     23.0360  -3.3040  15.4630   C.2       1 RES1   0.0000
@<TRIPOS>BOND
     1     1     3    2
     2     1     4    2
     3     1     8    1
     4     1    34    1
     5     2     5    2
     6     2     6    2
     7     2     9    1
     8     2    35    1
     9     7    10    1
    10     7    11    1
    11     8    12    1
    12     8    36    1
    13     9    13    1
    14     9    37    1
    15    10    36    1
    16    11    37    1
    17    12    38    1
    18    13    39    1
    19    14    18    2
    20    14    19    1
    21    15    20    2
    22    15    21    1
    23    16    22    2
    24    16    23    1
    25    17    24    2
    26    17    25    1
    27    18    26    1
    28    19    27    2
    29    20    28    1
    30    21    29    2
    31    22    30    1
    32    23    31    2
    33    24    32    1
    34    25    33    2
    35    26    34    2
    36    27    34    1
    37    28    35    2
    38    29    35    1
    39    30    38    2
    40    31    38    1
    41    32    39    2
    42    33    39    1
    43    36    37    1
@<TRIPOS>SUBSTRUCTURE
     1 RES1        1 GROUP             0 ****  ****    0  
@<TRIPOS>MOLECULE
3UFN:A:ROC401
    49    53     1     0     0
SMALL
NO_CHARGES
****
Generated from the CSD

@<TRIPOS>ATOM
     1 O1      25.6730   2.3910  19.1850   O.2       1 RES1   0.0000
     2 O2      22.5320   3.8710  19.4530   O.2       1 RES1   0.0000
     3 O3      22.0020  -1.1450  19.0230   O.2       1 RES1   0.0000
     4 O4      18.6620  -3.6880  17.1260   O.2       1 RES1   0.0000
     5 O5      20.6590   0.3590  14.5690   O.3       1 RES1   0.0000
     6 N6      25.2060   1.8670  21.2410   N.am      1 RES1   0.0000
     7 N7      22.2200   1.7420  20.1790   N.am      1 RES1   0.0000
     8 N8      21.3120   0.3490  17.4030   N.am      1 RES1   0.0000
     9 N9      20.9420   2.5960  22.3830   N.2       1 RES1   0.0000
    10 N10     17.2600  -4.2570  15.4250   N.am      1 RES1   0.0000
    11 N11     20.6520  -3.2050  14.9560   N.3       1 RES1   0.0000
    12 C12     14.8850  -4.1910  14.9330   C.3       1 RES1   0.0000
    13 C13     15.6800  -5.1280  17.0420   C.3       1 RES1   0.0000
    14 C14     15.8430  -2.7120  16.6950   C.3       1 RES1   0.0000
    15 C15     20.0360  -1.9470  14.6440   C.3       1 RES1   0.0000
    16 C16     21.7420  -3.5040  14.0300   C.3       1 RES1   0.0000
    17 C17     18.1160   1.2440  20.9930   C.2       1 RES1   0.0000
    18 C18     19.0250   2.2530  25.3730   C.2       1 RES1   0.0000
    19 C19     17.9460  -0.0800  20.5880   C.2       1 RES1   0.0000
    20 C20     18.5010   2.1850  20.0400   C.2       1 RES1   0.0000
    21 C21     18.4960   3.5310  25.5280   C.2       1 RES1   0.0000
    22 C22     24.2280  -5.6380  16.0480   C.3       1 RES1   0.0000
    23 C23     23.2860  -6.7880  16.3440   C.3       1 RES1   0.0000
    24 C24     19.7760   1.7390  24.3570   C.2       1 RES1   0.0000
    25 C25     20.9170   4.8510  21.6120   C.2       1 RES1   0.0000
    26 C26     18.1960  -0.4730  19.2870   C.2       1 RES1   0.0000
    27 C27     18.7710   1.7950  18.7390   C.2       1 RES1   0.0000
    28 C28     18.8230   4.5470  24.6440   C.2       1 RES1   0.0000
    29 C29     23.3940  -4.4260  15.7070   C.3       1 RES1   0.0000
    30 C30     22.3850  -7.1030  15.1710   C.3       1 RES1   0.0000
    31 C31     20.1050   5.2250  22.6830   C.2       1 RES1   0.0000
    32 C32     24.2340   0.5140  19.4630   C.3       1 RES1   0.0000
    33 C33     18.9310   0.0380  16.9130   C.3       1 RES1   0.0000
    34 C34     20.4150  -5.5680  15.5020   C.3       1 RES1   0.0000
    35 C35     25.0790   1.6310  19.9640   C.2       1 RES1   0.0000
    36 C36     22.0740   3.0560  20.3000   C.2       1 RES1   0.0000
    37 C37     22.0090  -0.0320  18.4980   C.2       1 RES1   0.0000
    38 C38     18.4650  -4.0610  15.9460   C.2       1 RES1   0.0000
    39 C39     20.7810  -0.8200  15.3400   C.3       1 RES1   0.0000
    40 C40     21.3420   3.5210  21.4810   C.2       1 RES1   0.0000
    41 C41     22.8970   1.0990  19.0480   C.3       1 RES1   0.0000
    42 C42     20.3410  -0.5470  16.7910   C.3       1 RES1   0.0000
    43 C43     20.1070   2.9130  23.4080   C.2       1 RES1   0.0000
    44 C44     19.6650  -4.3330  15.0090   C.3       1 RES1   0.0000
    45 C45     18.6270   0.4590  18.3520   C.2       1 RES1   0.0000
    46 C46     19.6660   4.2390  23.5710   C.2       1 RES1   0.0000
    47 C47     22.5650  -4.7020  14.4650   C.3       1 RES1   0.0000
    48 C48     21.6080  -5.9030  14.6450   C.3       1 RES1   0.0000
    49 C49     15.9510  -4.0550  16.0240   C.3       1 RES1   0.0000
@<TRIPOS>BOND
     1     1    35    2
     2     2    36    2
     3     3    37    2
     4     4    38    2
     5     5    39    1
     6     6    35   am
     7     7    36   am
     8     7    41    1
     9     8    37   am
    10     8    42    1
    11     9    40    2
    12     9    43    1
    13    10    38   am
    14    10    49    1
    15    11    15    1
    16    11    16    1
    17    11    44    1
    18    12    49    1
    19    13    49    1
    20    14    49    1
    21    15    39    1
    22    16    47    1
    23    17    19    2
    24    17    20    1
    25    18    21    2
    26    18    24    1
    27    19    26    1
    28    20    27    2
    29    21    28    1
    30    22    23    1
    31    22    29    1
    32    23    30    1
    33    24    43    2
    34    25    31    2
    35    25    40    1
    36    26    45    2
    37    27    45    1
    38    28    46    2
    39    29    47    1
    40    30    48    1
    41    31    46    1
    42    32    35    1
    43    32    41    1
    44    33    42    1
    45    33    45    1
    46    34    44    1
    47    34    48    1
    48    36    40    1
    49    37    41    1
    50    38    44    1
    51    39    42    1
    52    43    46    1
    53    47    48    1
@<TRIPOS>SUBSTRUCTURE
     1 RES1        1 GROUP             0 ****  ****    0  
@<TRIPOS>MOLECULE
3VFB:A:031201
    42    46     1     0     0
SMALL
NO_CHARGES
****
Generated from the CSD

@<TRIPOS>ATOM
     1 S1      18.8940  -4.0170  16.3720   S.o2      1 RES1   0.0000
     2 O2      18.1360  -2.9620  17.0680   O.2       1 RES1   0.0000
     3 O3      19.6170  -4.9740  17.2690   O.2       1 RES1   0.0000
     4 O4      22.7130  -1.3820  18.5620   O.2       1 RES1   0.0000
     5 O5      23.8460  -6.3930  12.8550   O.2       1 RES1   0.0000
     6 O6      20.6670   0.1790  14.5400   O.3       1 RES1   0.0000
     7 O7      15.2880  -6.8930  12.6650   O.3       1 RES1   0.0000
     8 O8      23.9090   3.3910  19.6760   O.3       1 RES1   0.0000
     9 O9      23.4900   0.7540  18.4800   O.3       1 RES1   0.0000
    10 N10     21.6080   0.1690  17.3600   N.am      1 RES1   0.0000
    11 N11     22.5560  -4.6920  13.1230   N.am      1 RES1   0.0000
    12 N12     20.0020  -3.3370  15.3610   N.pl3     1 RES1   0.0000
    13 C13     15.4170  -8.2690  12.3750   C.3       1 RES1   0.0000
    14 C14     22.6210   3.4420  20.2420   C.3       1 RES1   0.0000
    15 C15     19.7250  -2.0120  14.8460   C.3       1 RES1   0.0000
    16 C16     20.6840  -4.2240  14.4820   C.3       1 RES1   0.0000
    17 C17     18.7190   0.8740  21.3910   C.2       1 RES1   0.0000
    18 C18     19.0350   1.9110  20.5170   C.2       1 RES1   0.0000
    19 C19     18.5370  -0.3960  20.8540   C.2       1 RES1   0.0000
    20 C20     23.7640  -5.1930  15.0270   C.3       1 RES1   0.0000
    21 C21     17.9290  -6.3480  15.2010   C.2       1 RES1   0.0000
    22 C22     16.7560  -4.3530  14.7410   C.2       1 RES1   0.0000
    23 C23     22.6540   2.5510  21.4900   C.3       1 RES1   0.0000
    24 C24     17.1100  -7.0440  14.3030   C.2       1 RES1   0.0000
    25 C25     15.8850  -5.0240  13.9170   C.2       1 RES1   0.0000
    26 C26     23.0520  -3.8500  15.2890   C.3       1 RES1   0.0000
    27 C27     19.1000   1.7090  19.1370   C.2       1 RES1   0.0000
    28 C28     18.6780  -0.6330  19.4900   C.2       1 RES1   0.0000
    29 C29     25.4970   1.5430  19.5710   C.3       1 RES1   0.0000
    30 C30     23.8420   0.3860  20.8320   C.3       1 RES1   0.0000
    31 C31     19.1800   0.1560  17.1560   C.3       1 RES1   0.0000
    32 C32     22.5970  -0.2420  18.1560   C.2       1 RES1   0.0000
    33 C33     23.4210  -5.5160  13.5960   C.2       1 RES1   0.0000
    34 C34     17.7920  -4.9830  15.3840   C.2       1 RES1   0.0000
    35 C35     20.6980  -0.9570  15.3800   C.3       1 RES1   0.0000
    36 C36     16.1290  -6.3570  13.5890   C.2       1 RES1   0.0000
    37 C37     24.4750   0.4030  19.4480   C.3       1 RES1   0.0000
    38 C38     24.8180   2.5860  20.4320   C.3       1 RES1   0.0000
    39 C39     22.0900  -3.7330  14.1270   C.3       1 RES1   0.0000
    40 C40     20.4890  -0.5820  16.8450   C.3       1 RES1   0.0000
    41 C41     18.9900   0.4090  18.6410   C.2       1 RES1   0.0000
    42 C42     23.9940   1.7950  21.4050   C.3       1 RES1   0.0000
@<TRIPOS>BOND
     1     1     2    2
     2     1     3    2
     3     1    12    1
     4     1    34    1
     5     4    32    2
     6     5    33    2
     7     6    35    1
     8     7    13    1
     9     7    36    1
    10     8    14    1
    11     8    38    1
    12     9    32    1
    13     9    37    1
    14    10    32   am
    15    10    40    1
    16    11    33   am
    17    11    39    1
    18    12    15    1
    19    12    16    1
    20    14    23    1
    21    15    35    1
    22    16    39    1
    23    17    18    2
    24    17    19    1
    25    18    27    1
    26    19    28    2
    27    20    26    1
    28    20    33    1
    29    21    24    2
    30    21    34    1
    31    22    25    1
    32    22    34    2
    33    23    42    1
    34    24    36    1
    35    25    36    2
    36    26    39    1
    37    27    41    2
    38    28    41    1
    39    29    37    1
    40    29    38    1
    41    30    37    1
    42    30    42    1
    43    31    40    1
    44    31    41    1
    45    35    40    1
    46    38    42    1
@<TRIPOS>SUBSTRUCTURE
     1 RES1        1 GROUP             0 ****  ****    0  
@<TRIPOS>MOLECULE
1XL2:A:1891001
    41    44     1     0     0
SMALL
NO_CHARGES
****
Generated from the CSD

@<TRIPOS>ATOM
     1 S1      22.8810  -3.6740  17.6700   S.o2      1 RES1   0.0000
     2 O2      21.6560  -3.3080  18.4110   O.2       1 RES1   0.0000
     3 O3      23.3830  -5.0300  17.8990   O.2       1 RES1   0.0000
     4 O4      18.6090  -0.6030  17.9570   O.2       1 RES1   0.0000
     5 O5      18.5740  -1.1800  20.3460   O.3       1 RES1   0.0000
     6 N6      20.4910  -0.1720  14.1090   N.2       1 RES1   0.0000
     7 N7      22.7330  -3.4390  16.0970   N.pl3     1 RES1   0.0000
     8 N8      18.5820  -2.6080  17.0740   N.am      1 RES1   0.0000
     9 C9      21.3860  -5.8570  14.9790   C.3       1 RES1   0.0000
    10 C10     23.1790  -5.9100  13.2320   C.3       1 RES1   0.0000
    11 C11     20.3470  -0.4540  22.3950   C.3       1 RES1   0.0000
    12 C12     15.9140  -2.4450  20.8570   C.3       1 RES1   0.0000
    13 C13     18.9710  -2.2630  19.5060   C.3       1 RES1   0.0000
    14 C14     21.0770  -0.0800  15.4540   C.3       1 RES1   0.0000
    15 C15     20.2550  -1.6010  13.7960   C.3       1 RES1   0.0000
    16 C16     23.4340  -4.3570  15.1980   C.3       1 RES1   0.0000
    17 C17     22.5800  -2.0850  15.5420   C.3       1 RES1   0.0000
    18 C18     18.4000  -4.0190  17.2860   C.3       1 RES1   0.0000
    19 C19     18.7420  -1.9770  15.7650   C.3       1 RES1   0.0000
    20 C20     26.0680  -1.1390  19.7510   C.2       1 RES1   0.0000
    21 C21     14.5590  -5.0290  18.9980   C.2       1 RES1   0.0000
    22 C22     24.7160  -0.8240  19.9140   C.2       1 RES1   0.0000
    23 C23     26.4500  -2.2280  18.9650   C.2       1 RES1   0.0000
    24 C24     15.6710  -5.8380  19.2510   C.2       1 RES1   0.0000
    25 C25     14.6830  -3.9100  18.1710   C.2       1 RES1   0.0000
    26 C26     17.4160  -1.9710  24.3020   C.2       1 RES1   0.0000
    27 C27     23.7410  -1.6060  19.2910   C.2       1 RES1   0.0000
    28 C28     25.4790  -2.9990  18.3130   C.2       1 RES1   0.0000
    29 C29     18.5560  -1.2230  24.0000   C.2       1 RES1   0.0000
    30 C30     16.5750  -2.3710  23.2620   C.2       1 RES1   0.0000
    31 C31     16.9020  -5.4980  18.6830   C.2       1 RES1   0.0000
    32 C32     15.9150  -3.5740  17.6010   C.2       1 RES1   0.0000
    33 C33     18.6720  -1.8320  18.0830   C.2       1 RES1   0.0000
    34 C34     24.1330  -2.6800  18.4860   C.2       1 RES1   0.0000
    35 C35     18.1400  -1.4550  21.6290   C.2       1 RES1   0.0000
    36 C36     22.4450  -5.0190  14.2330   C.3       1 RES1   0.0000
    37 C37     19.0010  -1.1100  22.6860   C.2       1 RES1   0.0000
    38 C38     16.9230  -2.0620  21.9370   C.2       1 RES1   0.0000
    39 C39     17.0300  -4.3640  17.8750   C.2       1 RES1   0.0000
    40 C40     21.2000  -1.5260  15.9860   C.3       1 RES1   0.0000
    41 C41     20.1220  -2.2850  15.1680   C.3       1 RES1   0.0000
@<TRIPOS>BOND
     1     1     2    2
     2     1     3    2
     3     1     7    1
     4     1    34    1
     5     4    33    2
     6     5    13    1
     7     5    35    1
     8     6    14    1
     9     6    15    1
    10     7    16    1
    11     7    17    1
    12     8    18    1
    13     8    19    1
    14     8    33   am
    15     9    36    1
    16    10    36    1
    17    11    37    1
    18    12    38    1
    19    13    33    1
    20    14    40    1
    21    15    41    1
    22    16    36    1
    23    17    40    1
    24    18    39    1
    25    19    41    1
    26    20    22    2
    27    20    23    1
    28    21    24    2
    29    21    25    1
    30    22    27    1
    31    23    28    2
    32    24    31    1
    33    25    32    2
    34    26    29    2
    35    26    30    1
    36    27    34    2
    37    28    34    1
    38    29    37    1
    39    30    38    2
    40    31    39    2
    41    32    39    1
    42    35    37    2
    43    35    38    1
    44    40    41    1
@<TRIPOS>SUBSTRUCTURE
     1 RES1        1 GROUP             0 ****  ****    0  
@<TRIPOS>MOLECULE
3TOG:A:079101
    39    41     1     0     0
SMALL
NO_CHARGES
****
Generated from the CSD

@<TRIPOS>ATOM
     1 O1      22.7160   3.7910  19.0770   O.2       1 RES1   0.0000
     2 O2      21.8430  -1.0890  18.9630   O.2       1 RES1   0.0000
     3 O3      20.4170  -3.8780  14.4620   O.3       1 RES1   0.0000
     4 O4      20.8660   0.2410  14.5130   O.3       1 RES1   0.0000
     5 O5      21.2170   2.6990  22.0780   O.3       1 RES1   0.0000
     6 N6      22.8780  -1.4450  15.3000   N.3       1 RES1   0.0000
     7 N7      21.3710   0.3640  17.2880   N.am      1 RES1   0.0000
     8 N8      22.3900   1.7800  20.0290   N.am      1 RES1   0.0000
     9 C9      24.9740  -0.3300  18.0500   C.3       1 RES1   0.0000
    10 C10     25.5430   1.5370  19.4590   C.3       1 RES1   0.0000
    11 C11     21.6310   3.8040  21.1600   C.3       1 RES1   0.0000
    12 C12     18.3680   3.2870  25.0230   C.2       1 RES1   0.0000
    13 C13     23.1960  -7.6460  14.9430   C.2       1 RES1   0.0000
    14 C14     18.0580   1.4510  20.8550   C.2       1 RES1   0.0000
    15 C15     18.6270   4.3340  24.1530   C.2       1 RES1   0.0000
    16 C16     19.0260   2.0560  25.0000   C.2       1 RES1   0.0000
    17 C17     22.7750  -7.2950  13.6400   C.2       1 RES1   0.0000
    18 C18     23.5050  -6.6830  15.9290   C.2       1 RES1   0.0000
    19 C19     17.8640   0.1240  20.4850   C.2       1 RES1   0.0000
    20 C20     18.5110   2.4510  19.9840   C.2       1 RES1   0.0000
    21 C21     19.6270   4.1360  23.1660   C.2       1 RES1   0.0000
    22 C22     20.0230   1.8310  24.0120   C.2       1 RES1   0.0000
    23 C23     22.6700  -5.9200  13.3800   C.2       1 RES1   0.0000
    24 C24     23.4020  -5.3180  15.6230   C.2       1 RES1   0.0000
    25 C25     18.1760  -0.2510  19.1780   C.2       1 RES1   0.0000
    26 C26     18.7660   2.0360  18.6440   C.2       1 RES1   0.0000
    27 C27     22.8800  -3.5450  13.9610   C.3       1 RES1   0.0000
    28 C28     18.9250   0.3200  16.8270   C.3       1 RES1   0.0000
    29 C29     22.2220   3.1040  19.9730   C.2       1 RES1   0.0000
    30 C30     22.0950  -0.0230  18.3220   C.2       1 RES1   0.0000
    31 C31     21.4730  -2.9350  14.2150   C.3       1 RES1   0.0000
    32 C32     20.2850   2.8940  23.1020   C.2       1 RES1   0.0000
    33 C33     20.4820  -0.9060  15.3370   C.3       1 RES1   0.0000
    34 C34     21.5370  -2.0090  15.3790   C.3       1 RES1   0.0000
    35 C35     20.2350  -0.4620  16.7800   C.3       1 RES1   0.0000
    36 C36     23.0460   1.0770  18.8610   C.3       1 RES1   0.0000
    37 C37     24.4570   0.4780  19.2130   C.3       1 RES1   0.0000
    38 C38     22.9930  -4.9700  14.3540   C.2       1 RES1   0.0000
    39 C39     18.6060   0.7100  18.2570   C.2       1 RES1   0.0000
@<TRIPOS>BOND
     1     1    29    2
     2     2    30    2
     3     3    31    1
     4     4    33    1
     5     5    11    1
     6     5    32    1
     7     6    34    1
     8     7    30   am
     9     7    35    1
    10     8    29   am
    11     8    36    1
    12     9    37    1
    13    10    37    1
    14    11    29    1
    15    12    15    2
    16    12    16    1
    17    13    17    2
    18    13    18    1
    19    14    19    2
    20    14    20    1
    21    15    21    1
    22    16    22    2
    23    17    23    1
    24    18    24    2
    25    19    25    1
    26    20    26    2
    27    21    32    2
    28    22    32    1
    29    23    38    2
    30    24    38    1
    31    25    39    2
    32    26    39    1
    33    27    31    1
    34    27    38    1
    35    28    35    1
    36    28    39    1
    37    30    36    1
    38    31    34    1
    39    33    34    1
    40    33    35    1
    41    36    37    1
@<TRIPOS>SUBSTRUCTURE
     1 RES1        1 GROUP             0 ****  ****    0  
@<TRIPOS>MOLECULE
2O4L:A:TPV403
    42    45     1     0     0
SMALL
NO_CHARGES
****
Generated from the CSD

@<TRIPOS>ATOM
     1 S1      24.6900   3.1010  21.3220   S.o2      1 RES1   0.0000
     2 F2      18.8710   5.5050  19.4940   F         1 RES1   0.0000
     3 F3      18.4290   5.0910  21.5670   F         1 RES1   0.0000
     4 F4      18.4510   3.5200  20.1100   F         1 RES1   0.0000
     5 O5      25.5130   3.5730  20.2180   O.2       1 RES1   0.0000
     6 O6      25.1900   3.4200  22.6460   O.2       1 RES1   0.0000
     7 O7      20.8610  -3.0340  18.8140   O.2       1 RES1   0.0000
     8 O8      21.0080   0.1250  15.3180   O.3       1 RES1   0.0000
     9 O9      20.5410  -3.7570  16.7100   O.3       1 RES1   0.0000
    10 N10     24.6020   1.4910  21.1810   N.2       1 RES1   0.0000
    11 N11     22.7050   3.9920  19.9200   N.2       1 RES1   0.0000
    12 C12     16.3310  -4.2240  15.6610   C.3       1 RES1   0.0000
    13 C13     18.7720   0.9220  17.9190   C.3       1 RES1   0.0000
    14 C14     21.4180   4.3460  19.7190   C.2       1 RES1   0.0000
    15 C15     17.8070  -4.4860  15.8320   C.3       1 RES1   0.0000
    16 C16     20.2800   1.0740  17.9450   C.3       1 RES1   0.0000
    17 C17     22.9860  -8.5950  12.4310   C.2       1 RES1   0.0000
    18 C18     22.8380  -7.3740  11.7760   C.2       1 RES1   0.0000
    19 C19     22.8510  -8.6640  13.8230   C.2       1 RES1   0.0000
    20 C20     24.8460  -0.0770  17.8850   C.2       1 RES1   0.0000
    21 C21     22.2410   3.4800  22.2110   C.2       1 RES1   0.0000
    22 C22     25.2030   0.5270  19.0840   C.2       1 RES1   0.0000
    23 C23     22.5670  -6.2220  12.5090   C.2       1 RES1   0.0000
    24 C24     22.5740  -7.5090  14.5540   C.2       1 RES1   0.0000
    25 C25     23.5070  -0.3270  17.5950   C.2       1 RES1   0.0000
    26 C26     22.1200  -5.0180  14.6700   C.3       1 RES1   0.0000
    27 C27     20.9030   3.8390  22.0020   C.2       1 RES1   0.0000
    28 C28     22.8880   0.6380  19.7100   C.2       1 RES1   0.0000
    29 C29     18.6220  -3.3230  15.2650   C.3       1 RES1   0.0000
    30 C30     20.6240  -4.7190  14.5530   C.3       1 RES1   0.0000
    31 C31     20.8090  -2.2330  14.8240   C.3       1 RES1   0.0000
    32 C32     23.1490   3.5660  21.1380   C.2       1 RES1   0.0000
    33 C33     20.7650  -2.6950  17.6490   C.2       1 RES1   0.0000
    34 C34     20.8880  -1.0950  15.8270   C.2       1 RES1   0.0000
    35 C35     24.2300   0.8970  20.0050   C.2       1 RES1   0.0000
    36 C36     22.4270  -6.2860  13.8950   C.2       1 RES1   0.0000
    37 C37     22.5070   0.0250  18.5060   C.2       1 RES1   0.0000
    38 C38     21.0450  -0.2320  18.2280   C.3       1 RES1   0.0000
    39 C39     20.4790   4.2880  20.7460   C.2       1 RES1   0.0000
    40 C40     20.8780  -1.3160  17.1690   C.2       1 RES1   0.0000
    41 C41     19.0360   4.6470  20.4870   C.3       1 RES1   0.0000
    42 C42     20.1470  -3.5060  15.3560   C.3       1 RES1   0.0000
@<TRIPOS>BOND
     1     1     5    2
     2     1     6    2
     3     1    10    1
     4     1    32    1
     5     2    41    1
     6     3    41    1
     7     4    41    1
     8     7    33    2
     9     8    34    1
    10     9    33    1
    11     9    42    1
    12    10    35    1
    13    11    14    2
    14    11    32    1
    15    12    15    1
    16    13    16    1
    17    14    39    1
    18    15    29    1
    19    16    38    1
    20    17    18    2
    21    17    19    1
    22    18    23    1
    23    19    24    2
    24    20    22    2
    25    20    25    1
    26    21    27    1
    27    21    32    2
    28    22    35    1
    29    23    36    2
    30    24    36    1
    31    25    37    2
    32    26    30    1
    33    26    36    1
    34    27    39    2
    35    28    35    2
    36    28    37    1
    37    29    42    1
    38    30    42    1
    39    31    34    1
    40    31    42    1
    41    33    40    1
    42    34    40    2
    43    37    38    1
    44    38    40    1
    45    39    41    1
@<TRIPOS>SUBSTRUCTURE
     1 RES1        1 GROUP             0 ****  ****    0  
@<TRIPOS>MOLECULE
1U8G:I:MOL1
    53    55     1     0     0
SMALL
NO_CHARGES
****
Generated from the CSD

@<TRIPOS>ATOM
     1 O1      21.7000  -0.2480  15.4030   O.2       1 RES1   0.0000
     2 O2      18.8930  -4.4480  16.2970   O.2       1 RES1   0.0000
     3 O3      18.9630  -2.0680  14.2010   O.3       1 RES1   0.0000
     4 O4      18.0330  -5.5530  14.4350   O.3       1 RES1   0.0000
     5 N5      19.8990  -4.2170  14.2270   N.am      1 RES1   0.0000
     6 C6      20.5930  -0.7210  15.2390   C.2       1 RES1   0.0000
     7 C7      16.8970  -5.8010  15.3040   C.3       1 RES1   0.0000
     8 C8      14.0670  -7.7860  12.7890   C.2       1 RES1   0.0000
     9 C9      23.4810  -7.4240  15.3020   C.2       1 RES1   0.0000
    10 C10     13.8520  -6.4420  13.1200   C.2       1 RES1   0.0000
    11 C11     15.2230  -8.4350  13.2520   C.2       1 RES1   0.0000
    12 C12     23.8600  -6.3280  16.0790   C.2       1 RES1   0.0000
    13 C13     22.7170  -7.2470  14.1410   C.2       1 RES1   0.0000
    14 C14     14.7500  -5.7720  13.9760   C.2       1 RES1   0.0000
    15 C15     16.1910  -7.7720  14.0320   C.2       1 RES1   0.0000
    16 C16     23.4340  -5.0740  15.6500   C.2       1 RES1   0.0000
    17 C17     22.2790  -5.9940  13.7240   C.2       1 RES1   0.0000
    18 C18     22.2230  -3.5410  13.9930   C.3       1 RES1   0.0000
    19 C19     18.9880  -4.6650  15.1020   C.2       1 RES1   0.0000
    20 C20     20.3700  -1.8480  14.2370   C.3       1 RES1   0.0000
    21 C21     15.9370  -6.4600  14.3790   C.2       1 RES1   0.0000
    22 C22     22.6430  -4.9050  14.4960   C.2       1 RES1   0.0000
    23 C23     20.8790  -3.2350  14.6600   C.3       1 RES1   0.0000
    24 N24     19.6470  -0.7040  16.2870   N.am      1 RES1   0.0000
    25 C25     19.7360   0.3310  17.3430   C.3       1 RES1   0.0000
    26 C26     20.9330   0.1090  18.2540   C.2       1 RES1   0.0000
    27 O27     21.1110  -1.0190  18.7260   O.2       1 RES1   0.0000
    28 C28     18.5000   0.3810  18.2220   C.3       1 RES1   0.0000
    29 C29     18.5930   1.4350  19.2710   C.2       1 RES1   0.0000
    30 C30     18.6880   1.1020  20.6130   C.2       1 RES1   0.0000
    31 C31     18.4930   2.7620  18.9080   C.2       1 RES1   0.0000
    32 C32     18.7540   2.1000  21.5770   C.2       1 RES1   0.0000
    33 C33     18.5820   3.7650  19.8670   C.2       1 RES1   0.0000
    34 C34     18.6610   3.4450  21.1970   C.2       1 RES1   0.0000
    35 N35     21.6490   1.1970  18.5750   N.am      1 RES1   0.0000
    36 C36     22.7340   1.1350  19.5560   C.3       1 RES1   0.0000
    37 C37     22.8540   2.5340  20.1460   C.2       1 RES1   0.0000
    38 O38     22.7780   3.5590  19.4670   O.2       1 RES1   0.0000
    39 C39     24.0790   0.6680  18.8370   C.3       1 RES1   0.0000
    40 C40     25.3080   0.6720  19.7390   C.3       1 RES1   0.0000
    41 C41     25.8860   2.0550  20.0270   C.2       1 RES1   0.0000
    42 O42     26.6840   2.1190  21.0510   O.co2     1 RES1   0.0000
    43 O43     25.6600   3.0370  19.2400   O.co2     1 RES1   0.0000
    44 N44     23.2050   2.5490  21.4280   N.am      1 RES1   0.0000
    45 C45     23.5240   3.7960  22.1440   C.3       1 RES1   0.0000
    46 C46     24.4000   3.5360  23.3650   C.2       1 RES1   0.0000
    47 O47     24.3890   2.4190  23.8930   O.2       1 RES1   0.0000
    48 C48     22.2010   4.4120  22.5630   C.3       1 RES1   0.0000
    49 C49     21.5890   3.6030  23.7330   C.3       1 RES1   0.0000
    50 C50     20.2470   4.1710  24.1590   C.2       1 RES1   0.0000
    51 O51     19.3950   3.3330  24.6110   O.co2     1 RES1   0.0000
    52 O52     20.0710   5.4180  23.9810   O.co2     1 RES1   0.0000
    53 N53     25.0720   4.4240  23.8680   N.am      1 RES1   0.0000
@<TRIPOS>BOND
     1     1     6    2
     2     2    19    2
     3     3    20    1
     4     4     7    1
     5     4    19    1
     6     5    19   am
     7     5    23    1
     8     6    20    1
     9     6    24   am
    10     7    21    1
    11     8    10    2
    12     8    11    1
    13     9    12    2
    14     9    13    1
    15    10    14    1
    16    11    15    2
    17    12    16    1
    18    13    17    2
    19    14    21    2
    20    15    21    1
    21    16    22    2
    22    17    22    1
    23    18    22    1
    24    18    23    1
    25    20    23    1
    26    24    25    1
    27    25    26    1
    28    25    28    1
    29    26    27    2
    30    26    35   am
    31    28    29    1
    32    29    30    2
    33    29    31    1
    34    30    32    1
    35    31    33    2
    36    32    34    2
    37    33    34    1
    38    35    36    1
    39    36    37    1
    40    36    39    1
    41    37    38    2
    42    37    44   am
    43    39    40    1
    44    40    41    1
    45    41    42    1
    46    41    43    2
    47    44    45    1
    48    45    46    1
    49    45    48    1
    50    46    47    2
    51    46    53   am
    52    48    49    1
    53    49    50    1
    54    50    51    1
    55    50    52    2
@<TRIPOS>SUBSTRUCTURE
     1 RES1        1 GROUP             0 ****  ****    0  
@<TRIPOS>MOLECULE
1A94:A:0Q4100
    59    59     1     0     0
SMALL
NO_CHARGES
****
Generated from the CSD

@<TRIPOS>ATOM
     1 O1      25.8110   3.0570  18.8760   O.co2     1 RES1   0.0000
     2 O2      26.6280   2.7060  20.9060   O.co2     1 RES1   0.0000
     3 O3      26.2130   3.9150  25.6120   O.2       1 RES1   0.0000
     4 O4      18.1640  -6.2220  12.1990   O.2       1 RES1   0.0000
     5 O5      24.0280   3.2360  23.7030   O.2       1 RES1   0.0000
     6 O6      23.2750   3.5870  19.2230   O.2       1 RES1   0.0000
     7 O7      21.5390  -1.0010  18.8000   O.2       1 RES1   0.0000
     8 O8      19.4620  -4.4990  16.6180   O.2       1 RES1   0.0000
     9 N9      23.2750 -10.8670  14.8940   N.pl3     1 RES1   0.0000
    10 N10     22.8940 -13.0290  15.4980   N.pl3     1 RES1   0.0000
    11 N11     24.4260   5.1640  25.9770   N.am      1 RES1   0.0000
    12 N12     17.8920  -9.0120  12.2650   N.3       1 RES1   0.0000
    13 N13     21.1120 -11.6020  15.2160   N.2       1 RES1   0.0000
    14 N14     20.3660  -1.2340  16.3200   N.2       1 RES1   0.0000
    15 N15     22.8540   2.7400  21.2220   N.am      1 RES1   0.0000
    16 N16     20.1990  -3.5950  14.6930   N.am      1 RES1   0.0000
    17 N17     24.5240   5.3100  22.9540   N.am      1 RES1   0.0000
    18 N18     22.0250   1.1390  18.3580   N.am      1 RES1   0.0000
    19 N19     18.3530  -6.1970  14.4350   N.am      1 RES1   0.0000
    20 C20     28.3220   8.8950  22.1850   C.3       1 RES1   0.0000
    21 C21     21.4470   4.3830  22.3260   C.3       1 RES1   0.0000
    22 C22     23.3020  -5.2140  12.7050   C.3       1 RES1   0.0000
    23 C23     22.8940  -5.7380  15.1280   C.3       1 RES1   0.0000
    24 C24     16.3290  -3.2010  15.4890   C.3       1 RES1   0.0000
    25 C25     15.6910  -5.5640  14.9820   C.3       1 RES1   0.0000
    26 C26     20.4960 -10.3170  14.8670   C.3       1 RES1   0.0000
    27 C27     21.5070  -1.7400  15.8590   C.2       1 RES1   0.0000
    28 C28     27.7430   7.7670  23.0380   C.3       1 RES1   0.0000
    29 C29     20.8100  -9.8520  13.4050   C.3       1 RES1   0.0000
    30 C30     26.2170   7.8410  23.0170   C.3       1 RES1   0.0000
    31 C31     18.8120   2.8750  20.8700   C.2       1 RES1   0.0000
    32 C32     18.9950   3.4100  19.5940   C.2       1 RES1   0.0000
    33 C33     18.5950   1.5180  21.0340   C.2       1 RES1   0.0000
    34 C34     25.6110   0.8530  19.7150   C.3       1 RES1   0.0000
    35 C35     20.2220  -8.4700  13.0480   C.3       1 RES1   0.0000
    36 C36     25.6090   7.0780  24.1910   C.3       1 RES1   0.0000
    37 C37     24.3870   0.7070  18.8230   C.3       1 RES1   0.0000
    38 C38     18.9680   2.5700  18.4960   C.2       1 RES1   0.0000
    39 C39     18.5700   0.6950  19.9310   C.2       1 RES1   0.0000
    40 C40     22.5860  -3.4210  14.3490   C.3       1 RES1   0.0000
    41 C41     18.8630   0.2800  17.4730   C.3       1 RES1   0.0000
    42 C42     26.0620   2.3050  19.8470   C.2       1 RES1   0.0000
    43 C43     22.4260 -11.8270  15.2150   C.2       1 RES1   0.0000
    44 C44     25.4080   4.8310  25.2840   C.2       1 RES1   0.0000
    45 C45     18.3830  -6.7950  13.2550   C.2       1 RES1   0.0000
    46 C46     23.8600   4.1690  22.9040   C.2       1 RES1   0.0000
    47 C47     23.0870   2.6070  19.9440   C.2       1 RES1   0.0000
    48 C48     21.3400   0.0330  18.1270   C.2       1 RES1   0.0000
    49 C49     19.3130  -4.2830  15.4050   C.2       1 RES1   0.0000
    50 C50     18.7030  -8.2790  13.2820   C.3       1 RES1   0.0000
    51 C51     22.8410   4.0640  21.7980   C.3       1 RES1   0.0000
    52 C52     22.4970  -4.8900  13.9470   C.3       1 RES1   0.0000
    53 C53     21.4390  -3.1380  15.2940   C.3       1 RES1   0.0000
    54 C54     16.7930  -4.6450  15.4910   C.3       1 RES1   0.0000
    55 C55     20.2970   0.0690  16.9670   C.3       1 RES1   0.0000
    56 C56     25.5420   5.5800  23.9530   C.3       1 RES1   0.0000
    57 C57     23.0450   1.1840  19.4070   C.3       1 RES1   0.0000
    58 C58     18.0680  -4.7980  14.6410   C.3       1 RES1   0.0000
    59 C59     18.7640   1.2070  18.6510   C.2       1 RES1   0.0000
@<TRIPOS>BOND
     1     1    42    2
     2     2    42    1
     3     3    44    2
     4     4    45    2
     5     5    46    2
     6     6    47    2
     7     7    48    2
     8     8    49    2
     9     9    43    1
    10    10    43    2
    11    11    44   am
    12    12    50    1
    13    13    26    1
    14    13    43    1
    15    14    27    2
    16    14    55    1
    17    15    47   am
    18    15    51    1
    19    16    49   am
    20    16    53    1
    21    17    46   am
    22    17    56    1
    23    18    48   am
    24    18    57    1
    25    19    45   am
    26    19    58    1
    27    20    28    1
    28    21    51    1
    29    22    52    1
    30    23    52    1
    31    24    54    1
    32    25    54    1
    33    26    29    1
    34    27    53    1
    35    28    30    1
    36    29    35    1
    37    30    36    1
    38    31    32    2
    39    31    33    1
    40    32    38    1
    41    33    39    2
    42    34    37    1
    43    34    42    1
    44    35    50    1
    45    36    56    1
    46    37    57    1
    47    38    59    2
    48    39    59    1
    49    40    52    1
    50    40    53    1
    51    41    55    1
    52    41    59    1
    53    44    56    1
    54    45    50    1
    55    46    51    1
    56    47    57    1
    57    48    55    1
    58    49    58    1
    59    54    58    1
@<TRIPOS>SUBSTRUCTURE
     1 RES1        1 GROUP             0 ****  ****    0  
@<TRIPOS>MOLECULE
3ST5:B:G89201
    40    43     1     0     0
SMALL
NO_CHARGES
****
Generated from the CSD

@<TRIPOS>ATOM
     1 S1      22.8320  -1.1750  18.5740   S.o2      1 RES1   0.0000
     2 O2      23.6000  -2.1060  17.6860   O.2       1 RES1   0.0000
     3 O3      22.2090  -1.8280  19.7700   O.2       1 RES1   0.0000
     4 O4      19.1140  -4.1500  16.5910   O.2       1 RES1   0.0000
     5 O5      21.0430  -0.6890  14.0430   O.3       1 RES1   0.0000
     6 O6      19.0120  -9.2170  12.7550   O.3       1 RES1   0.0000
     7 O7      26.4160   3.1420  20.3490   O.3       1 RES1   0.0000
     8 O8      17.8150  -6.3900  12.4470   O.3       1 RES1   0.0000
     9 O9      18.2770  -4.5620  14.5490   O.3       1 RES1   0.0000
    10 N10     20.1710  -3.3150  14.7800   N.am      1 RES1   0.0000
    11 N11     21.6160  -0.5210  17.6910   N.3       1 RES1   0.0000
    12 C12     26.1520   3.6150  21.6530   C.3       1 RES1   0.0000
    13 C13     18.7410  -0.7720  18.5410   C.3       1 RES1   0.0000
    14 C14     18.6650   1.6790  18.7560   C.3       1 RES1   0.0000
    15 C15     19.1380  -6.8650  12.6130   C.3       1 RES1   0.0000
    16 C16     21.9560  -0.3200  16.2940   C.3       1 RES1   0.0000
    17 C17     20.9010   0.5440  18.3860   C.3       1 RES1   0.0000
    18 C18     23.0990  -7.3630  15.1960   C.2       1 RES1   0.0000
    19 C19     22.7340  -6.7950  13.9770   C.2       1 RES1   0.0000
    20 C20     23.2510  -6.5050  16.2780   C.2       1 RES1   0.0000
    21 C21     24.9400   0.5310  18.3410   C.2       1 RES1   0.0000
    22 C22     23.7300   0.6080  20.4150   C.2       1 RES1   0.0000
    23 C23     25.8060   1.5370  18.7550   C.2       1 RES1   0.0000
    24 C24     24.5630   1.6550  20.8230   C.2       1 RES1   0.0000
    25 C25     22.6410  -5.4300  13.8310   C.2       1 RES1   0.0000
    26 C26     23.1020  -5.1310  16.1510   C.2       1 RES1   0.0000
    27 C27     16.2810  -5.8460  14.1670   C.3       1 RES1   0.0000
    28 C28     18.0160  -6.7880  15.5360   C.3       1 RES1   0.0000
    29 C29     22.5850  -3.0810  14.7660   C.3       1 RES1   0.0000
    30 C30     19.2050  -4.0080  15.3680   C.2       1 RES1   0.0000
    31 C31     23.9270   0.0560  19.1570   C.2       1 RES1   0.0000
    32 C32     21.0450  -1.1400  15.3930   C.3       1 RES1   0.0000
    33 C33     19.0780  -8.0450  13.5980   C.3       1 RES1   0.0000
    34 C34     25.5950   2.1150  20.0110   C.2       1 RES1   0.0000
    35 C35     17.3600  -5.4530  15.1900   C.3       1 RES1   0.0000
    36 C36     16.9220  -6.9850  13.3770   C.3       1 RES1   0.0000
    37 C37     21.2930  -2.6420  15.4660   C.3       1 RES1   0.0000
    38 C38     19.4030   0.5310  18.0580   C.3       1 RES1   0.0000
    39 C39     22.7780  -4.5860  14.9220   C.2       1 RES1   0.0000
    40 C40     17.7970  -7.7380  14.3660   C.3       1 RES1   0.0000
@<TRIPOS>BOND
     1     1     2    2
     2     1     3    2
     3     1    11    1
     4     1    31    1
     5     4    30    2
     6     5    32    1
     7     6    33    1
     8     7    12    1
     9     7    34    1
    10     8    15    1
    11     8    36    1
    12     9    30    1
    13     9    35    1
    14    10    30   am
    15    10    37    1
    16    11    16    1
    17    11    17    1
    18    13    38    1
    19    14    38    1
    20    15    33    1
    21    16    32    1
    22    17    38    1
    23    18    19    2
    24    18    20    1
    25    19    25    1
    26    20    26    2
    27    21    23    2
    28    21    31    1
    29    22    24    1
    30    22    31    2
    31    23    34    1
    32    24    34    2
    33    25    39    2
    34    26    39    1
    35    27    35    1
    36    27    36    1
    37    28    35    1
    38    28    40    1
    39    29    37    1
    40    29    39    1
    41    32    37    1
    42    33    40    1
    43    36    40    1
@<TRIPOS>SUBSTRUCTURE
     1 RES1        1 GROUP             0 ****  ****    0  
@<TRIPOS>MOLECULE
3QRO:A:DTD101
     8     8     1     0     0
SMALL
NO_CHARGES
****
Generated from the CSD

@<TRIPOS>ATOM
     1 S1      22.5980  -6.8020  15.9810   S.3       1 RES1   0.0000
     2 S2      23.9630  -5.4350  16.4930   S.3       1 RES1   0.0000
     3 O3      21.8830  -5.2050  12.4690   O.3       1 RES1   0.0000
     4 O4      22.9090  -2.9410  13.6280   O.3       1 RES1   0.0000
     5 C5      22.3470  -6.6400  14.2520   C.3       1 RES1   0.0000
     6 C6      23.3350  -3.9710  15.7530   C.3       1 RES1   0.0000
     7 C7      22.0580  -5.1920  13.8870   C.3       1 RES1   0.0000
     8 C8      23.1730  -4.2070  14.2510   C.3       1 RES1   0.0000
@<TRIPOS>BOND
     1     1     2    1
     2     1     5    1
     3     2     6    1
     4     3     7    1
     5     4     8    1
     6     5     7    1
     7     6     8    1
     8     7     8    1
@<TRIPOS>SUBSTRUCTURE
     1 RES1        1 GROUP             0 ****  ****    0  
@<TRIPOS>MOLECULE
3QRO:A:NK9100
    39    42     1     0     0
SMALL
NO_CHARGES
****
Generated from the CSD

@<TRIPOS>ATOM
     1 S1      19.3740  -2.8100  18.5560   S.o2      1 RES1   0.0000
     2 F2      19.6390   5.2540  21.1840   F         1 RES1   0.0000
     3 F3      21.1330   4.1460  22.1410   F         1 RES1   0.0000
     4 F4      19.1200   3.8300  22.6150   F         1 RES1   0.0000
     5 O5      20.5330  -3.5670  18.9220   O.2       1 RES1   0.0000
     6 O6      18.5030  -2.5640  19.6490   O.2       1 RES1   0.0000
     7 O7      15.4590  -5.0290  13.6320   O.2       1 RES1   0.0000
     8 O8      23.3610   1.3670  22.5290   O.3       1 RES1   0.0000
     9 O9      26.5460   2.9360  19.3900   O.3       1 RES1   0.0000
    10 N10     16.5990  -6.8940  14.0670   N.am      1 RES1   0.0000
    11 N11     21.0810  -0.1940  14.9270   N.2       1 RES1   0.0000
    12 N12     23.2400  -0.4490  17.0190   N.2       1 RES1   0.0000
    13 N13     19.7850  -1.4530  17.8860   N.pl3     1 RES1   0.0000
    14 C14     21.4650   0.7760  15.9380   C.3       1 RES1   0.0000
    15 C15     20.4920  -1.3620  15.5810   C.3       1 RES1   0.0000
    16 C16     23.8740  -1.0180  18.2110   C.3       1 RES1   0.0000
    17 C17     18.9240  -0.2670  18.0070   C.3       1 RES1   0.0000
    18 C18     17.2070  -3.2870  17.1500   C.2       1 RES1   0.0000
    19 C19     19.1510  -4.5350  16.5600   C.2       1 RES1   0.0000
    20 C20     19.7850   0.5940  20.2390   C.2       1 RES1   0.0000
    21 C21     18.8940   2.1430  18.6280   C.2       1 RES1   0.0000
    22 C22     16.4580  -3.9160  16.1430   C.2       1 RES1   0.0000
    23 C23     18.4170  -5.1780  15.5510   C.2       1 RES1   0.0000
    24 C24     20.0170   1.6480  21.1230   C.2       1 RES1   0.0000
    25 C25     19.1360   3.1980  19.5070   C.2       1 RES1   0.0000
    26 C26     24.9440   2.1470  20.9420   C.2       1 RES1   0.0000
    27 C27     23.6040   0.2030  20.4290   C.2       1 RES1   0.0000
    28 C28     25.2190   1.0120  18.8400   C.2       1 RES1   0.0000
    29 C29     18.5520  -3.5800  17.3810   C.2       1 RES1   0.0000
    30 C30     16.3180  -5.6080  14.2630   C.2       1 RES1   0.0000
    31 C31     23.9610   1.2280  21.3030   C.2       1 RES1   0.0000
    32 C32     25.5730   2.0300  19.7200   C.2       1 RES1   0.0000
    33 C33     21.8330  -0.0830  17.1450   C.3       1 RES1   0.0000
    34 C34     20.9940  -1.3560  17.0390   C.3       1 RES1   0.0000
    35 C35     19.2270   0.8430  18.9920   C.2       1 RES1   0.0000
    36 C36     24.2340   0.0890  19.1890   C.2       1 RES1   0.0000
    37 C37     17.0770  -4.8800  15.3480   C.2       1 RES1   0.0000
    38 C38     19.6790   2.9470  20.7640   C.2       1 RES1   0.0000
    39 C39     19.9540   4.1070  21.6420   C.3       1 RES1   0.0000
@<TRIPOS>BOND
     1     1     5    2
     2     1     6    2
     3     1    13    1
     4     1    29    1
     5     2    39    1
     6     3    39    1
     7     4    39    1
     8     7    30    2
     9     8    31    1
    10     9    32    1
    11    10    30   am
    12    11    14    1
    13    11    15    1
    14    12    16    1
    15    12    33    1
    16    13    17    1
    17    13    34    1
    18    14    33    1
    19    15    34    1
    20    16    36    1
    21    17    35    1
    22    18    22    2
    23    18    29    1
    24    19    23    1
    25    19    29    2
    26    20    24    2
    27    20    35    1
    28    21    25    1
    29    21    35    2
    30    22    37    1
    31    23    37    2
    32    24    38    1
    33    25    38    2
    34    26    31    2
    35    26    32    1
    36    27    31    1
    37    27    36    2
    38    28    32    2
    39    28    36    1
    40    30    37    1
    41    33    34    1
    42    38    39    1
@<TRIPOS>SUBSTRUCTURE
     1 RES1        1 GROUP             0 ****  ****    0  
@<TRIPOS>MOLECULE
4FLG:C:ASP260
    27    26     1     0     0
SMALL
NO_CHARGES
****
Generated from the CSD

@<TRIPOS>ATOM
     1 N1      24.4530   5.2090  25.7250   N.3       1 RES1   0.0000
     2 C2      24.5300   5.1230  24.2650   C.3       1 RES1   0.0000
     3 C3      23.6900   3.9620  23.7310   C.2       1 RES1   0.0000
     4 O4      23.6790   2.8780  24.3050   O.2       1 RES1   0.0000
     5 C5      25.9380   4.9130  23.7530   C.3       1 RES1   0.0000
     6 N6      23.0560   4.2590  22.6110   N.am      1 RES1   0.0000
     7 C7      22.1830   3.3710  21.8760   C.3       1 RES1   0.0000
     8 C8      22.8140   2.8710  20.5740   C.2       1 RES1   0.0000
     9 O9      23.0950   3.7120  19.7150   O.2       1 RES1   0.0000
    10 C10     20.8810   4.0900  21.5130   C.3       1 RES1   0.0000
    11 N11     22.9870   1.5630  20.4890   N.am      1 RES1   0.0000
    12 C12     23.3870   0.9090  19.2390   C.3       1 RES1   0.0000
    13 C13     22.2770  -0.0070  18.7970   C.2       1 RES1   0.0000
    14 O14     22.0700  -1.0850  19.3480   O.2       1 RES1   0.0000
    15 C15     24.6950   0.1390  19.4350   C.3       1 RES1   0.0000
    16 C16     25.6940   0.9360  20.2790   C.3       1 RES1   0.0000
    17 C17     25.2960  -0.2730  18.0990   C.3       1 RES1   0.0000
    18 C18     26.1770   2.1930  19.5500   C.3       1 RES1   0.0000
    19 N19     21.5340   0.4560  17.7690   N.am      1 RES1   0.0000
    20 C20     20.4950  -0.4810  17.3190   C.3       1 RES1   0.0000
    21 C21     20.4210  -0.4750  15.7970   C.2       1 RES1   0.0000
    22 O22     19.5790  -1.1220  15.1780   O.co2     1 RES1   0.0000
    23 C23     19.1000  -0.2190  17.9050   C.3       1 RES1   0.0000
    24 C24     18.7330   1.2520  18.0420   C.3       1 RES1   0.0000
    25 C25     18.9820  -0.9540  19.2340   C.3       1 RES1   0.0000
    26 C26     18.7330   1.7640  19.4730   C.3       1 RES1   0.0000
    27 O27     21.1840   0.3050  15.1710   O.co2     1 RES1   0.0000
@<TRIPOS>BOND
     1     1     2    1
     2     2     3    1
     3     2     5    1
     4     3     4    2
     5     3     6   am
     6     6     7    1
     7     7     8    1
     8     7    10    1
     9     8     9    2
    10     8    11   am
    11    11    12    1
    12    12    13    1
    13    12    15    1
    14    13    14    2
    15    13    19   am
    16    15    16    1
    17    15    17    1
    18    16    18    1
    19    19    20    1
    20    20    21    1
    21    20    23    1
    22    21    22    2
    23    21    27    1
    24    23    24    1
    25    23    25    1
    26    24    26    1
@<TRIPOS>SUBSTRUCTURE
     1 RES1        1 GROUP             0 ****  ****    0  
@<TRIPOS>MOLECULE
3NDX:A:RIT100
    50    53     1     0     0
SMALL
NO_CHARGES
****
Generated from the CSD

@<TRIPOS>ATOM
     1 S1      22.8160   4.0040  19.4690   S.3       1 RES1   0.0000
     2 S2      23.5760  -8.7120  11.4220   S.3       1 RES1   0.0000
     3 O3      22.6630  -1.5860  18.4370   O.2       1 RES1   0.0000
     4 O4      18.9080  -6.0620  12.4010   O.2       1 RES1   0.0000
     5 O5      19.4600  -4.4060  16.8400   O.2       1 RES1   0.0000
     6 O6      20.8250   0.1440  14.4380   O.3       1 RES1   0.0000
     7 O7      23.1600   0.5050  18.8470   O.3       1 RES1   0.0000
     8 N8      21.4600   4.2110  21.5920   N.2       1 RES1   0.0000
     9 N9      21.6980   0.0490  17.1900   N.am      1 RES1   0.0000
    10 N10     21.5850 -10.0230  12.2440   N.2       1 RES1   0.0000
    11 N11     20.3210  -3.9700  14.7980   N.am      1 RES1   0.0000
    12 N12     18.5340  -6.4720  14.5860   N.am      1 RES1   0.0000
    13 N13     19.1560  -8.1860  13.0990   N.am      1 RES1   0.0000
    14 C14     19.0590  -9.1850  14.1720   C.3       1 RES1   0.0000
    15 C15     23.4440 -11.4970  14.0040   C.3       1 RES1   0.0000
    16 C16     25.2410 -11.0310  12.2770   C.3       1 RES1   0.0000
    17 C17     15.8070  -5.5400  14.6900   C.3       1 RES1   0.0000
    18 C18     16.5710  -3.6210  16.1440   C.3       1 RES1   0.0000
    19 C19     21.9400   4.8970  20.6480   C.2       1 RES1   0.0000
    20 C20     22.0600  -8.0050  11.2220   C.2       1 RES1   0.0000
    21 C21     22.1970   1.5220  19.0930   C.2       1 RES1   0.0000
    22 C22     21.7840   2.8630  21.3090   C.2       1 RES1   0.0000
    23 C23     19.6100  -8.5830  11.7620   C.3       1 RES1   0.0000
    24 C24     23.1640  -8.2640  16.0560   C.2       1 RES1   0.0000
    25 C25     18.4230   1.3240  20.9650   C.2       1 RES1   0.0000
    26 C26     22.3870  -7.9230  14.9410   C.2       1 RES1   0.0000
    27 C27     23.7580  -7.2310  16.7850   C.2       1 RES1   0.0000
    28 C28     18.2660  -0.0140  20.6390   C.2       1 RES1   0.0000
    29 C29     18.8420   2.2060  19.9920   C.2       1 RES1   0.0000
    30 C30     22.2780  -6.6460  14.4540   C.2       1 RES1   0.0000
    31 C31     23.6240  -5.9460  16.3290   C.2       1 RES1   0.0000
    32 C32     18.5650  -0.4280  19.3290   C.2       1 RES1   0.0000
    33 C33     18.9660   1.8230  18.6910   C.2       1 RES1   0.0000
    34 C34     21.8100  -1.9810  14.8310   C.3       1 RES1   0.0000
    35 C35     22.8260  -4.2090  14.6700   C.3       1 RES1   0.0000
    36 C36     19.2630   0.0730  16.9370   C.3       1 RES1   0.0000
    37 C37     22.5010  -0.4400  18.1240   C.2       1 RES1   0.0000
    38 C38     18.8800  -6.8670  13.3440   C.2       1 RES1   0.0000
    39 C39     22.8770 -10.0770  12.1310   C.2       1 RES1   0.0000
    40 C40     19.3830  -4.4250  15.6170   C.2       1 RES1   0.0000
    41 C41     22.5120   2.4790  20.2230   C.3       1 RES1   0.0000
    42 C42     20.6710  -1.0260  15.2160   C.3       1 RES1   0.0000
    43 C43     21.1110  -8.8520  11.7470   C.2       1 RES1   0.0000
    44 C44     21.5880  -3.4460  15.2180   C.3       1 RES1   0.0000
    45 C45     20.5560  -0.7190  16.7280   C.3       1 RES1   0.0000
    46 C46     18.2490  -5.0060  14.7970   C.3       1 RES1   0.0000
    47 C47     23.7540 -11.1780  12.5060   C.3       1 RES1   0.0000
    48 C48     16.9120  -4.4980  14.9960   C.3       1 RES1   0.0000
    49 C49     22.9100  -5.6330  15.1690   C.2       1 RES1   0.0000
    50 C50     18.9730   0.4930  18.3820   C.2       1 RES1   0.0000
@<TRIPOS>BOND
     1     1    19    1
     2     1    41    1
     3     2    20    1
     4     2    39    1
     5     3    37    2
     6     4    38    2
     7     5    40    2
     8     6    42    1
     9     7    21    1
    10     7    37    1
    11     8    19    2
    12     8    22    1
    13     9    37   am
    14     9    45    1
    15    10    39    2
    16    10    43    1
    17    11    40   am
    18    11    44    1
    19    12    38   am
    20    12    46    1
    21    13    14    1
    22    13    23    1
    23    13    38   am
    24    15    47    1
    25    16    47    1
    26    17    48    1
    27    18    48    1
    28    20    43    2
    29    21    41    1
    30    22    41    1
    31    23    43    1
    32    24    26    2
    33    24    27    1
    34    25    28    2
    35    25    29    1
    36    26    30    1
    37    27    31    2
    38    28    32    1
    39    29    33    2
    40    30    49    2
    41    31    49    1
    42    32    50    2
    43    33    50    1
    44    34    42    1
    45    34    44    1
    46    35    44    1
    47    35    49    1
    48    36    45    1
    49    36    50    1
    50    39    47    1
    51    40    46    1
    52    42    45    1
    53    46    48    1
@<TRIPOS>SUBSTRUCTURE
     1 RES1        1 GROUP             0 ****  ****    0  
@<TRIPOS>MOLECULE
2AZ8:A:3TL200
    33    34     1     0     0
SMALL
NO_CHARGES
****
Generated from the CSD

@<TRIPOS>ATOM
     1 O1      20.1520   0.9590  15.2180   O.3       1 RES1   0.0000
     2 O2      24.4350   2.6020  24.1270   O.2       1 RES1   0.0000
     3 O3      23.2580   3.6240  19.5980   O.2       1 RES1   0.0000
     4 O4      21.8080  -1.3840  19.2580   O.2       1 RES1   0.0000
     5 O5      24.7620   4.7230  23.8410   O.3       1 RES1   0.0000
     6 N6      23.2720   3.9350  22.4940   N.am      1 RES1   0.0000
     7 N7      21.1390   0.1440  17.8360   N.am      1 RES1   0.0000
     8 N8      22.8400   1.4270  20.2360   N.am      1 RES1   0.0000
     9 C9      21.1210   3.9120  21.9200   C.3       1 RES1   0.0000
    10 C10     25.6860   1.1280  19.1950   C.3       1 RES1   0.0000
    11 C11     24.7950  -0.6350  17.7130   C.3       1 RES1   0.0000
    12 C12     20.0480  -0.2490  15.8200   C.2       1 RES1   0.0000
    13 C13     25.1660   4.9280  25.1720   C.2       1 RES1   0.0000
    14 C14     23.0680   4.6420  28.8180   C.2       1 RES1   0.0000
    15 C15     17.6310   0.3840  21.9450   C.2       1 RES1   0.0000
    16 C16     24.4750   4.2280  28.7520   C.2       1 RES1   0.0000
    17 C17     22.2700   5.1780  27.6670   C.2       1 RES1   0.0000
    18 C18     18.2680   1.5630  21.3830   C.2       1 RES1   0.0000
    19 C19     17.3630  -0.8490  21.1570   C.2       1 RES1   0.0000
    20 C20     25.1350   4.3360  27.5380   C.2       1 RES1   0.0000
    21 C21     22.9490   5.2980  26.3900   C.2       1 RES1   0.0000
    22 C22     18.6210   1.4500  19.9610   C.2       1 RES1   0.0000
    23 C23     17.7240  -0.9080  19.8010   C.2       1 RES1   0.0000
    24 C24     18.6400  -0.0410  17.8510   C.2       1 RES1   0.0000
    25 C25     24.1010   3.6020  23.4710   C.2       1 RES1   0.0000
    26 C26     22.9140   2.7520  20.4350   C.2       1 RES1   0.0000
    27 C27     22.0030  -0.2930  18.7520   C.2       1 RES1   0.0000
    28 C28     22.4520   3.0860  21.8700   C.3       1 RES1   0.0000
    29 C29     19.8900  -0.5500  17.3090   C.3       1 RES1   0.0000
    30 C30     24.5580   0.0850  19.0040   C.3       1 RES1   0.0000
    31 C31     23.1370   0.6960  18.9710   C.3       1 RES1   0.0000
    32 C32     24.3540   4.8690  26.3870   C.2       1 RES1   0.0000
    33 C33     18.3360   0.1960  19.2180   C.2       1 RES1   0.0000
@<TRIPOS>BOND
     1     1    12    1
     2     2    25    2
     3     3    26    2
     4     4    27    2
     5     5    13    1
     6     5    25    1
     7     6    25   am
     8     6    28    1
     9     7    27   am
    10     7    29    1
    11     8    26   am
    12     8    31    1
    13     9    28    1
    14    10    30    1
    15    11    30    1
    16    12    29    1
    17    13    32    1
    18    14    16    2
    19    14    17    1
    20    15    18    2
    21    15    19    1
    22    16    20    1
    23    17    21    2
    24    18    22    1
    25    19    23    2
    26    20    32    2
    27    21    32    1
    28    22    33    2
    29    23    33    1
    30    24    29    1
    31    24    33    1
    32    26    28    1
    33    27    31    1
    34    30    31    1
@<TRIPOS>SUBSTRUCTURE
     1 RES1        1 GROUP             0 ****  ****    0  
@<TRIPOS>MOLECULE
4FL8:C:GLN261
    52    51     1     0     0
SMALL
NO_CHARGES
****
Generated from the CSD

@<TRIPOS>ATOM
     1 N1      18.5010  -9.4480  12.1570   N.3       1 RES1   0.0000
     2 C2      19.5320  -8.7150  12.8700   C.3       1 RES1   0.0000
     3 C3      19.0760  -7.2590  12.9530   C.2       1 RES1   0.0000
     4 O4      18.7970  -6.6530  11.8970   O.2       1 RES1   0.0000
     5 C5      20.9160  -8.7260  12.2510   C.3       1 RES1   0.0000
     6 N6      19.0220  -6.7900  14.1940   N.am      1 RES1   0.0000
     7 C7      18.5070  -5.4710  14.5350   C.3       1 RES1   0.0000
     8 C8      19.5510  -4.6190  15.2150   C.2       1 RES1   0.0000
     9 O9      19.6400  -4.6800  16.4540   O.2       1 RES1   0.0000
    10 C10     17.3200  -5.5500  15.5300   C.3       1 RES1   0.0000
    11 C11     16.7250  -6.9550  15.4920   C.3       1 RES1   0.0000
    12 C12     16.3610  -4.4070  15.2720   C.3       1 RES1   0.0000
    13 C13     16.0260  -7.2290  14.1530   C.3       1 RES1   0.0000
    14 N14     20.3160  -3.8170  14.4530   N.am      1 RES1   0.0000
    15 C15     21.2400  -3.0220  15.2600   C.3       1 RES1   0.0000
    16 C16     20.9970  -1.5110  15.1080   C.3       1 RES1   0.0000
    17 O17     20.7350  -1.2070  13.7410   O.3       1 RES1   0.0000
    18 C18     22.7200  -3.2890  14.9640   C.3       1 RES1   0.0000
    19 C19     22.9980  -4.3980  13.9560   C.3       1 RES1   0.0000
    20 C20     23.4240  -3.5670  16.2900   C.3       1 RES1   0.0000
    21 C21     22.6030  -5.7590  14.4880   C.3       1 RES1   0.0000
    22 O22     22.2750  -0.9420  15.3480   O.3       1 RES1   0.0000
    23 N23     20.0870  -1.0300  15.9510   N.2       1 RES1   0.0000
    24 C24     20.1760  -0.0740  17.0120   C.3       1 RES1   0.0000
    25 C25     21.3570  -0.1970  17.9800   C.2       1 RES1   0.0000
    26 O26     21.7810  -1.2300  18.4810   O.2       1 RES1   0.0000
    27 C27     19.0460  -0.1160  18.0880   C.3       1 RES1   0.0000
    28 C28     17.9500  -1.1400  17.8330   C.3       1 RES1   0.0000
    29 C29     18.5360   1.2990  18.2980   C.3       1 RES1   0.0000
    30 C30     17.0070  -1.3290  18.9990   C.3       1 RES1   0.0000
    31 N31     21.8450   1.0000  18.3090   N.am      1 RES1   0.0000
    32 C32     22.8060   1.0530  19.4240   C.3       1 RES1   0.0000
    33 C33     22.7960   2.4280  20.0390   C.2       1 RES1   0.0000
    34 O34     22.8570   3.5310  19.4890   O.2       1 RES1   0.0000
    35 C35     24.1210   0.5840  18.8200   C.3       1 RES1   0.0000
    36 C36     25.3680   0.6190  19.6440   C.3       1 RES1   0.0000
    37 C37     26.0120   1.9880  19.7850   C.2       1 RES1   0.0000
    38 O38     25.8690   2.8090  18.8760   O.co2     1 RES1   0.0000
    39 O39     26.5750   2.2740  20.8710   O.co2     1 RES1   0.0000
    40 N40     22.7810   2.4850  21.3630   N.am      1 RES1   0.0000
    41 C41     22.8550   3.7640  22.0630   C.3       1 RES1   0.0000
    42 C42     23.8340   3.7550  23.2270   C.2       1 RES1   0.0000
    43 O43     23.9300   2.8370  24.0390   O.2       1 RES1   0.0000
    44 C44     21.4620   4.1620  22.5650   C.3       1 RES1   0.0000
    45 C45     20.8200   3.1780  23.5370   C.3       1 RES1   0.0000
    46 C46     20.5290   4.4010  21.3700   C.3       1 RES1   0.0000
    47 C47     19.2940   3.2330  23.5510   C.3       1 RES1   0.0000
    48 N48     24.6050   4.8200  23.2890   N.am      1 RES1   0.0000
    49 C49     25.2150   5.5380  24.3360   C.3       1 RES1   0.0000
    50 C50     24.3380   5.5160  25.5920   C.2       1 RES1   0.0000
    51 O51     23.1360   5.7530  25.4610   O.2       1 RES1   0.0000
    52 C52     25.3850   6.9900  23.8690   C.3       1 RES1   0.0000
@<TRIPOS>BOND
     1     1     2    1
     2     2     3    1
     3     2     5    1
     4     3     4    2
     5     3     6   am
     6     6     7    1
     7     7     8    1
     8     7    10    1
     9     8     9    2
    10     8    14   am
    11    10    11    1
    12    10    12    1
    13    11    13    1
    14    14    15    1
    15    15    16    1
    16    15    18    1
    17    16    17    1
    18    16    22    1
    19    16    23    1
    20    18    19    1
    21    18    20    1
    22    19    21    1
    23    23    24    1
    24    24    25    1
    25    24    27    1
    26    25    26    2
    27    25    31   am
    28    27    28    1
    29    27    29    1
    30    28    30    1
    31    31    32    1
    32    32    33    1
    33    32    35    1
    34    33    34    2
    35    33    40   am
    36    35    36    1
    37    36    37    1
    38    37    38    2
    39    37    39    1
    40    40    41    1
    41    41    42    1
    42    41    44    1
    43    42    43    2
    44    42    48   am
    45    44    45    1
    46    44    46    1
    47    45    47    1
    48    48    49    1
    49    49    50    1
    50    49    52    1
    51    50    51    2
@<TRIPOS>SUBSTRUCTURE
     1 RES1        1 GROUP             0 ****  ****    0  
@<TRIPOS>MOLECULE
3KDD:A:JZQ100
    45    49     1     0     0
SMALL
NO_CHARGES
****
Generated from the CSD

@<TRIPOS>ATOM
     1 S1      23.5650  -4.6040  15.4640   S.3       1 RES1   0.0000
     2 F2      26.5410   2.0060  20.0070   F         1 RES1   0.0000
     3 F3      22.0400   3.3780  20.6450   F         1 RES1   0.0000
     4 O4      22.8950  -1.5710  18.7630   O.2       1 RES1   0.0000
     5 O5      20.0650  -4.8070  16.0610   O.2       1 RES1   0.0000
     6 O6      19.9330  -1.6570  14.4470   O.2       1 RES1   0.0000
     7 O7      18.4010  -6.5530  11.8610   O.3       1 RES1   0.0000
     8 O8      21.1740   0.6890  14.9250   O.3       1 RES1   0.0000
     9 O9      23.8520   1.7970  19.3260   O.3       1 RES1   0.0000
    10 N10     22.0770   0.3470  17.9270   N.am      1 RES1   0.0000
    11 N11     19.2700  -5.0610  13.9480   N.am      1 RES1   0.0000
    12 N12     21.7930  -2.7820  15.0110   N.am      1 RES1   0.0000
    13 C13     23.2760  -4.6360  12.7980   C.3       1 RES1   0.0000
    14 C14     22.1680  -6.4580  14.0770   C.3       1 RES1   0.0000
    15 C15     23.0740  -2.9390  15.7100   C.3       1 RES1   0.0000
    16 C16     23.7970   0.4110  19.6590   C.3       1 RES1   0.0000
    17 C17     18.4280   0.6360  21.3520   C.2       1 RES1   0.0000
    18 C18     18.1740  -0.4970  20.5820   C.2       1 RES1   0.0000
    19 C19     19.0980   1.7280  20.8000   C.2       1 RES1   0.0000
    20 C20     14.2740  -4.7840  14.2210   C.2       1 RES1   0.0000
    21 C21     15.2100  -3.9600  14.8500   C.2       1 RES1   0.0000
    22 C22     25.1040   4.4460  22.2800   C.2       1 RES1   0.0000
    23 C23     26.0380   3.6470  21.6240   C.2       1 RES1   0.0000
    24 C24     23.7560   4.3500  21.9510   C.2       1 RES1   0.0000
    25 C25     18.5980  -0.5460  19.2570   C.2       1 RES1   0.0000
    26 C26     19.5120   1.6820  19.4690   C.2       1 RES1   0.0000
    27 C27     14.6540  -5.9820  13.6300   C.2       1 RES1   0.0000
    28 C28     16.5580  -4.3010  14.9130   C.2       1 RES1   0.0000
    29 C29     16.6390  -7.5360  13.1280   C.3       1 RES1   0.0000
    30 C30     19.7280   0.5060  17.2600   C.3       1 RES1   0.0000
    31 C31     22.8770  -0.3540  18.7350   C.2       1 RES1   0.0000
    32 C32     20.1720  -4.6590  14.8470   C.2       1 RES1   0.0000
    33 C33     25.6230   2.7630  20.6330   C.2       1 RES1   0.0000
    34 C34     23.3440   3.4620  20.9620   C.2       1 RES1   0.0000
    35 C35     21.0160  -1.6920  15.0130   C.2       1 RES1   0.0000
    36 C36     18.1060  -7.1210  13.1410   C.3       1 RES1   0.0000
    37 C37     21.5280  -0.4540  15.7090   C.3       1 RES1   0.0000
    38 C38     24.2750   2.6730  20.2990   C.2       1 RES1   0.0000
    39 C39     21.0280  -0.2930  17.1500   C.3       1 RES1   0.0000
    40 C40     18.2790  -6.0710  14.2450   C.3       1 RES1   0.0000
    41 C41     19.2660   0.5460  18.6990   C.2       1 RES1   0.0000
    42 C42     16.0010  -6.3090  13.7050   C.2       1 RES1   0.0000
    43 C43     21.3870  -3.9900  14.2610   C.3       1 RES1   0.0000
    44 C44     16.9220  -5.4970  14.3160   C.2       1 RES1   0.0000
    45 C45     22.5490  -4.9780  14.0870   C.3       1 RES1   0.0000
@<TRIPOS>BOND
     1     1    15    1
     2     1    45    1
     3     2    33    1
     4     3    34    1
     5     4    31    2
     6     5    32    2
     7     6    35    2
     8     7    36    1
     9     8    37    1
    10     9    16    1
    11     9    38    1
    12    10    31   am
    13    10    39    1
    14    11    32   am
    15    11    40    1
    16    12    15    1
    17    12    35   am
    18    12    43    1
    19    13    45    1
    20    14    45    1
    21    16    31    1
    22    17    18    2
    23    17    19    1
    24    18    25    1
    25    19    26    2
    26    20    21    2
    27    20    27    1
    28    21    28    1
    29    22    23    2
    30    22    24    1
    31    23    33    1
    32    24    34    2
    33    25    41    2
    34    26    41    1
    35    27    42    2
    36    28    44    2
    37    29    36    1
    38    29    42    1
    39    30    39    1
    40    30    41    1
    41    32    43    1
    42    33    38    2
    43    34    38    1
    44    35    37    1
    45    36    40    1
    46    37    39    1
    47    40    44    1
    48    42    44    1
    49    43    45    1
@<TRIPOS>SUBSTRUCTURE
     1 RES1        1 GROUP             0 ****  ****    0  
@<TRIPOS>MOLECULE
1D4S:A:TPV201
    42    44     1     0     0
SMALL
NO_CHARGES
****
Generated from the CSD

@<TRIPOS>ATOM
     1 S1      24.9540   3.1370  21.1870   S.o2      1 RES1   0.0000
     2 F2      18.9840   3.4370  19.3630   F         1 RES1   0.0000
     3 F3      19.0380   5.7840  19.7180   F         1 RES1   0.0000
     4 F4      18.5630   4.3150  21.5210   F         1 RES1   0.0000
     5 O5      25.6990   3.5270  19.9970   O.2       1 RES1   0.0000
     6 O6      25.3700   3.6830  22.4690   O.2       1 RES1   0.0000
     7 N7      25.0510   1.5320  21.3280   N.3       1 RES1   0.0000
     8 N8      22.8870   3.9100  19.6950   N.2       1 RES1   0.0000
     9 C9      21.5750   4.1750  19.5150   C.2       1 RES1   0.0000
    10 C10     22.4180   3.5300  22.0330   C.2       1 RES1   0.0000
    11 C11     21.0630   3.8320  21.8320   C.2       1 RES1   0.0000
    12 C12     23.2810   3.5560  20.9330   C.2       1 RES1   0.0000
    13 C13     20.7010   4.3830  20.5860   C.2       1 RES1   0.0000
    14 C14     19.2010   4.5000  20.2780   C.3       1 RES1   0.0000
    15 O15     21.2050  -2.8110  18.7280   O.2       1 RES1   0.0000
    16 O16     20.9280  -0.0480  14.8670   O.3       1 RES1   0.0000
    17 O17     20.7770  -3.7240  16.7680   O.3       1 RES1   0.0000
    18 C18     17.4180  -4.1530  15.0830   C.3       1 RES1   0.0000
    19 C19     18.8300   0.9960  18.0870   C.3       1 RES1   0.0000
    20 C20     18.7990  -4.7670  15.1940   C.2       1 RES1   0.0000
    21 C21     20.1670   0.6000  18.7540   C.3       1 RES1   0.0000
    22 C22     23.6230  -8.3710  12.4420   C.2       1 RES1   0.0000
    23 C23     23.9590  -8.2040  13.8020   C.2       1 RES1   0.0000
    24 C24     23.1890  -7.2740  11.6720   C.2       1 RES1   0.0000
    25 C25     25.0240  -0.1580  17.6670   C.2       1 RES1   0.0000
    26 C26     25.3520   0.4770  18.8840   C.2       1 RES1   0.0000
    27 C27     23.6690  -6.9820  14.4470   C.2       1 RES1   0.0000
    28 C28     22.9940  -6.0290  12.3130   C.2       1 RES1   0.0000
    29 C29     23.6720  -0.3780  17.3290   C.2       1 RES1   0.0000
    30 C30     22.8700  -4.6070  14.2920   C.2       1 RES1   0.0000
    31 C31     23.0110   0.5300  19.4830   C.2       1 RES1   0.0000
    32 C32     19.7970  -4.2740  14.5240   C.2       1 RES1   0.0000
    33 C33     22.1590  -4.4500  15.6070   C.3       1 RES1   0.0000
    34 C34     21.1670  -2.4920  14.7140   C.2       1 RES1   0.0000
    35 C35     21.0980  -2.6830  17.5420   C.2       1 RES1   0.0000
    36 C36     20.8730  -1.2360  15.5280   C.2       1 RES1   0.0000
    37 C37     24.3600   0.7470  19.8340   C.2       1 RES1   0.0000
    38 C38     23.1700  -5.9050  13.7100   C.2       1 RES1   0.0000
    39 C39     22.6650   0.0360  18.2130   C.2       1 RES1   0.0000
    40 C40     21.2020  -0.1380  17.8430   C.3       1 RES1   0.0000
    41 C41     21.1250  -1.3270  16.9040   C.2       1 RES1   0.0000
    42 C42     20.9400  -3.5900  15.3000   C.3       1 RES1   0.0000
@<TRIPOS>BOND
     1     1     5    2
     2     1     6    2
     3     1     7    1
     4     1    12    1
     5     2    14    1
     6     3    14    1
     7     4    14    1
     8    15    35    2
     9    16    36    1
    10    17    35    1
    11    17    42    1
    12     8     9    2
    13     8    12    1
    14    18    20    1
    15    19    21    1
    16     9    13    1
    17    20    32    1
    18    21    40    1
    19    22    23    2
    20    22    24    1
    21    23    27    1
    22    24    28    2
    23    25    26    2
    24    25    29    1
    25    10    11    1
    26    10    12    2
    27    26    37    1
    28    27    38    2
    29    28    38    1
    30    29    39    2
    31    30    33    1
    32    30    38    1
    33    11    13    2
    34    31    37    2
    35    31    39    1
    36    32    42    1
    37    33    42    1
    38    34    36    1
    39    34    42    1
    40    35    41    1
    41    36    41    2
    42    39    40    1
    43    40    41    1
    44    13    14    1
@<TRIPOS>SUBSTRUCTURE
     1 RES1        1 GROUP             0 ****  ****    0  
@<TRIPOS>MOLECULE
4FAF:D:ARG1
    60    60     1     0     0
SMALL
NO_CHARGES
****
Generated from the CSD

@<TRIPOS>ATOM
     1 N1      18.0830  -8.9490  12.5480   N.3       1 RES1   0.0000
     2 C2      18.6040  -8.3680  13.8120   C.3       1 RES1   0.0000
     3 C3      18.2230  -6.9090  13.8690   C.2       1 RES1   0.0000
     4 O4      18.0160  -6.2740  12.8310   O.2       1 RES1   0.0000
     5 C5      20.1350  -8.4570  13.8820   C.3       1 RES1   0.0000
     6 C6      20.7900  -9.4230  12.9340   C.3       1 RES1   0.0000
     7 C7      22.1580  -9.8040  13.4850   C.3       1 RES1   0.0000
     8 N8      23.2230  -9.5790  12.5160   N.2       1 RES1   0.0000
     9 C9      23.9630 -10.5520  11.9920   C.2       1 RES1   0.0000
    10 N10     23.7490 -11.8090  12.3550   N.pl3     1 RES1   0.0000
    11 N11     24.9140 -10.2700  11.1070   N.pl3     1 RES1   0.0000
    12 N12     18.2360  -6.3530  15.0720   N.am      1 RES1   0.0000
    13 C13     17.9480  -4.9370  15.2550   C.3       1 RES1   0.0000
    14 C14     19.1110  -4.3250  16.0200   C.2       1 RES1   0.0000
    15 O15     19.2120  -4.4900  17.2370   O.2       1 RES1   0.0000
    16 C16     16.6360  -4.7600  16.0490   C.3       1 RES1   0.0000
    17 C17     16.3960  -3.2980  16.4250   C.3       1 RES1   0.0000
    18 C18     15.4720  -5.3330  15.2640   C.3       1 RES1   0.0000
    19 N19     20.0660  -3.7530  15.2900   N.am      1 RES1   0.0000
    20 C20     21.2560  -3.1860  15.9130   C.3       1 RES1   0.0000
    21 C21     21.0940  -1.7100  16.2680   C.2       1 RES1   0.0000
    22 O22     21.9150  -0.8720  15.8990   O.2       1 RES1   0.0000
    23 C23     22.4910  -3.3960  15.0310   C.3       1 RES1   0.0000
    24 C24     22.6660  -4.7870  14.4150   C.3       1 RES1   0.0000
    25 C25     23.8580  -4.7630  13.4590   C.3       1 RES1   0.0000
    26 C26     22.8420  -5.8600  15.4780   C.3       1 RES1   0.0000
    27 N27     20.0530  -1.3940  17.0270   N.am      1 RES1   0.0000
    28 C28     20.0390  -0.1660  17.7850   C.3       1 RES1   0.0000
    29 C29     21.2230  -0.2090  18.7490   C.2       1 RES1   0.0000
    30 O30     21.5610  -1.2670  19.2730   O.2       1 RES1   0.0000
    31 C31     18.7050  -0.0580  18.5400   C.3       1 RES1   0.0000
    32 C32     18.6990   0.9820  19.6020   C.2       1 RES1   0.0000
    33 C33     18.6870   0.6200  20.9440   C.2       1 RES1   0.0000
    34 C34     18.7540   2.3250  19.2680   C.2       1 RES1   0.0000
    35 C35     18.7070   1.5920  21.9350   C.2       1 RES1   0.0000
    36 C36     18.8020   3.3010  20.2430   C.2       1 RES1   0.0000
    37 C37     18.7590   2.9400  21.5860   C.2       1 RES1   0.0000
    38 N38     21.9330   0.9020  18.8930   N.am      1 RES1   0.0000
    39 C39     23.0050   0.9740  19.8700   C.3       1 RES1   0.0000
    40 C40     23.0870   2.3950  20.4000   C.2       1 RES1   0.0000
    41 O41     23.0060   3.3550  19.6330   O.2       1 RES1   0.0000
    42 C42     24.3400   0.5350  19.2490   C.3       1 RES1   0.0000
    43 C43     25.5390   0.6620  20.1650   C.3       1 RES1   0.0000
    44 C44     26.1030   2.0720  20.1900   C.2       1 RES1   0.0000
    45 O45     25.7880   2.8490  19.2620   O.co2     1 RES1   0.0000
    46 O46     26.8090   2.4290  21.1660   O.co2     1 RES1   0.0000
    47 N47     23.2100   2.5240  21.7160   N.am      1 RES1   0.0000
    48 C48     23.2690   3.8350  22.3460   C.3       1 RES1   0.0000
    49 C49     24.1710   3.7660  23.5680   C.2       1 RES1   0.0000
    50 O50     24.1720   2.7760  24.2990   O.2       1 RES1   0.0000
    51 C51     21.8820   4.2910  22.7400   C.3       1 RES1   0.0000
    52 N52     24.9460   4.8240  23.7770   N.am      1 RES1   0.0000
    53 C53     25.9750   4.8250  24.8100   C.3       1 RES1   0.0000
    54 C54     25.6330   5.8700  25.8620   C.2       1 RES1   0.0000
    55 O55     24.8470   5.5920  26.7770   O.co2     1 RES1   0.0000
    56 C56     27.3470   5.0950  24.1820   C.3       1 RES1   0.0000
    57 C57     28.1770   6.1720  24.8510   C.3       1 RES1   0.0000
    58 S58     29.7170   5.5150  25.4990   S.3       1 RES1   0.0000
    59 C59     30.4840   4.8550  24.0210   C.3       1 RES1   0.0000
    60 O60     26.0600   7.0300  25.7730   O.co2     1 RES1   0.0000
@<TRIPOS>BOND
     1     1     2    1
     2     2     3    1
     3     2     5    1
     4     3     4    2
     5     3    12   am
     6     5     6    1
     7     6     7    1
     8     7     8    1
     9     8     9    1
    10     9    10    2
    11     9    11    1
    12    12    13    1
    13    13    14    1
    14    13    16    1
    15    14    15    2
    16    14    19   am
    17    16    17    1
    18    16    18    1
    19    19    20    1
    20    20    21    1
    21    20    23    1
    22    21    22    2
    23    21    27   am
    24    23    24    1
    25    24    25    1
    26    24    26    1
    27    27    28    1
    28    28    29    1
    29    28    31    1
    30    29    30    2
    31    29    38   am
    32    31    32    1
    33    32    33    2
    34    32    34    1
    35    33    35    1
    36    34    36    2
    37    35    37    2
    38    36    37    1
    39    38    39    1
    40    39    40    1
    41    39    42    1
    42    40    41    2
    43    40    47   am
    44    42    43    1
    45    43    44    1
    46    44    45    2
    47    44    46    1
    48    47    48    1
    49    48    49    1
    50    48    51    1
    51    49    50    2
    52    49    52   am
    53    52    53    1
    54    53    54    1
    55    53    56    1
    56    54    55    2
    57    54    60    1
    58    56    57    1
    59    57    58    1
    60    58    59    1
@<TRIPOS>SUBSTRUCTURE
     1 RES1        1 GROUP             0 ****  ****    0  
@<TRIPOS>MOLECULE
2O4S:A:AB1400
    46    49     1     0     0
SMALL
NO_CHARGES
****
Generated from the CSD

@<TRIPOS>ATOM
     1 O1      22.8830   3.9220  19.2230   O.2       1 RES1   0.0000
     2 O2      19.2720  -3.4620  17.4140   O.2       1 RES1   0.0000
     3 O3      21.9300  -0.7160  19.5590   O.2       1 RES1   0.0000
     4 O4      20.7120  -0.4650  14.0140   O.3       1 RES1   0.0000
     5 O5      17.9120  -4.1690  14.2280   O.3       1 RES1   0.0000
     6 N6      22.8980   4.0250  21.4610   N.am      1 RES1   0.0000
     7 N7      21.2060   0.8240  18.0440   N.am      1 RES1   0.0000
     8 N8      19.9520  -2.8360  15.2680   N.am      1 RES1   0.0000
     9 N9      23.1940   2.0040  20.3400   N.am      1 RES1   0.0000
    10 C10     24.7080  -0.5250  17.8250   C.3       1 RES1   0.0000
    11 C11     25.8580   1.1530  19.3390   C.3       1 RES1   0.0000
    12 C12     19.2050  -6.3270  12.8830   C.3       1 RES1   0.0000
    13 C13     15.0200  -3.8690  14.4610   C.3       1 RES1   0.0000
    14 C14     17.9950  -4.2610  15.6550   C.3       1 RES1   0.0000
    15 C15     23.0570   3.4580  22.7940   C.3       1 RES1   0.0000
    16 C16     23.2090   1.2390  21.6040   C.3       1 RES1   0.0000
    17 C17     23.8130   2.1260  22.6990   C.3       1 RES1   0.0000
    18 C18     18.8590   2.0140  22.3660   C.2       1 RES1   0.0000
    19 C19     22.9810  -6.7660  15.3950   C.2       1 RES1   0.0000
    20 C20     18.2520   0.8240  21.9620   C.2       1 RES1   0.0000
    21 C21     19.3880   2.9150  21.4250   C.2       1 RES1   0.0000
    22 C22     22.5860  -6.2450  14.1680   C.2       1 RES1   0.0000
    23 C23     23.1860  -5.9320  16.5010   C.2       1 RES1   0.0000
    24 C24     15.4980  -7.0870  12.4870   C.2       1 RES1   0.0000
    25 C25     18.2330   0.5150  20.5750   C.2       1 RES1   0.0000
    26 C26     19.3650   2.6120  20.0520   C.2       1 RES1   0.0000
    27 C27     22.3910  -4.8650  14.0540   C.2       1 RES1   0.0000
    28 C28     22.9930  -4.5500  16.3760   C.2       1 RES1   0.0000
    29 C29     16.8780  -7.1960  12.3980   C.2       1 RES1   0.0000
    30 C30     14.9390  -6.0000  13.1650   C.2       1 RES1   0.0000
    31 C31     19.7720   0.0410  16.1860   C.3       1 RES1   0.0000
    32 C32     18.7750   1.1050  18.1740   C.3       1 RES1   0.0000
    33 C33     22.3540  -2.5550  14.9280   C.3       1 RES1   0.0000
    34 C34     23.0000   3.3430  20.2910   C.2       1 RES1   0.0000
    35 C35     19.1570  -3.4610  16.1890   C.2       1 RES1   0.0000
    36 C36     22.0800   0.3390  18.9320   C.2       1 RES1   0.0000
    37 C37     20.9290  -0.6010  15.4200   C.3       1 RES1   0.0000
    38 C38     19.9100   0.1720  17.7000   C.3       1 RES1   0.0000
    39 C39     17.1230  -5.1150  13.6320   C.2       1 RES1   0.0000
    40 C40     21.1350  -2.0750  15.7180   C.3       1 RES1   0.0000
    41 C41     23.3080   1.1830  19.1100   C.3       1 RES1   0.0000
    42 C42     24.5870   0.3160  19.0960   C.3       1 RES1   0.0000
    43 C43     18.7940   1.4110  19.6430   C.2       1 RES1   0.0000
    44 C44     22.5930  -4.0380  15.1380   C.2       1 RES1   0.0000
    45 C45     17.7020  -6.2020  12.9600   C.2       1 RES1   0.0000
    46 C46     15.7280  -5.0160  13.7480   C.2       1 RES1   0.0000
@<TRIPOS>BOND
     1     1    34    2
     2     2    35    2
     3     3    36    2
     4     4    37    1
     5     5    14    1
     6     5    39    1
     7     6    15    1
     8     6    34   am
     9     7    36   am
    10     7    38    1
    11     8    35   am
    12     8    40    1
    13     9    16    1
    14     9    34   am
    15     9    41    1
    16    10    42    1
    17    11    42    1
    18    12    45    1
    19    13    46    1
    20    14    35    1
    21    15    17    1
    22    16    17    1
    23    18    20    2
    24    18    21    1
    25    19    22    2
    26    19    23    1
    27    20    25    1
    28    21    26    2
    29    22    27    1
    30    23    28    2
    31    24    29    2
    32    24    30    1
    33    25    43    2
    34    26    43    1
    35    27    44    2
    36    28    44    1
    37    29    45    1
    38    30    46    2
    39    31    37    1
    40    31    38    1
    41    32    38    1
    42    32    43    1
    43    33    40    1
    44    33    44    1
    45    36    41    1
    46    37    40    1
    47    39    45    2
    48    39    46    1
    49    41    42    1
@<TRIPOS>SUBSTRUCTURE
     1 RES1        1 GROUP             0 ****  ****    0  
@<TRIPOS>MOLECULE
1DIF:B:A85101
    60    63     1     0     0
SMALL
NO_CHARGES
****
Generated from the CSD

@<TRIPOS>ATOM
     1 F1      20.7190   1.0180  15.0230   F         1 RES1   0.0000
     2 F2      22.2100  -0.2870  15.7240   F         1 RES1   0.0000
     3 O3      22.7040   3.7180  19.3940   O.2       1 RES1   0.0000
     4 O4      18.3270  -6.0590  12.3690   O.2       1 RES1   0.0000
     5 O5      22.1080  -1.0750  18.9860   O.2       1 RES1   0.0000
     6 O6      19.2280  -4.1260  16.8420   O.2       1 RES1   0.0000
     7 O7      18.9370  -1.3240  15.0710   O.3       1 RES1   0.0000
     8 O8      20.4960  -0.9740  13.5150   O.3       1 RES1   0.0000
     9 N9      19.3900   5.6310  21.8370   N.2       1 RES1   0.0000
    10 N10     21.7380  -9.0860  11.4010   N.2       1 RES1   0.0000
    11 N11     22.8060   1.7400  20.4290   N.am      1 RES1   0.0000
    12 N12     18.4720  -6.3360  14.6120   N.am      1 RES1   0.0000
    13 N13     21.3000   0.7510  17.9420   N.am      1 RES1   0.0000
    14 N14     19.9420  -3.6500  14.7870   N.am      1 RES1   0.0000
    15 N15     21.9720   3.6170  21.5030   N.am      1 RES1   0.0000
    16 N16     19.2000  -7.9710  13.1260   N.am      1 RES1   0.0000
    17 C17     21.5650   2.8890  22.6970   C.3       1 RES1   0.0000
    18 C18     19.6340  -8.8290  14.2400   C.3       1 RES1   0.0000
    19 C19     25.0680  -0.4500  18.2740   C.3       1 RES1   0.0000
    20 C20     25.7030   1.2460  20.0160   C.3       1 RES1   0.0000
    21 C21     15.7600  -6.0350  14.9910   C.3       1 RES1   0.0000
    22 C22     16.0820  -3.7070  16.0140   C.3       1 RES1   0.0000
    23 C23     18.1990   6.0010  21.3120   C.2       1 RES1   0.0000
    24 C24     22.9680  -8.7930  10.9740   C.2       1 RES1   0.0000
    25 C25     21.7270   5.0310  21.5270   C.3       1 RES1   0.0000
    26 C26     19.3920  -8.4750  11.7700   C.3       1 RES1   0.0000
    27 C27     17.9230   6.0810  19.9280   C.2       1 RES1   0.0000
    28 C28     23.3120  -7.5790  10.3750   C.2       1 RES1   0.0000
    29 C29     17.9610   1.0130  21.2910   C.2       1 RES1   0.0000
    30 C30     23.1400  -7.1110  15.5130   C.2       1 RES1   0.0000
    31 C31     18.9450   5.7680  19.0300   C.2       1 RES1   0.0000
    32 C32     22.3240  -6.6040  10.2140   C.2       1 RES1   0.0000
    33 C33     18.5400   2.1110  20.6550   C.2       1 RES1   0.0000
    34 C34     17.6870  -0.1590  20.5780   C.2       1 RES1   0.0000
    35 C35     23.3610  -6.1170  16.4620   C.2       1 RES1   0.0000
    36 C36     22.6740  -6.7510  14.2500   C.2       1 RES1   0.0000
    37 C37     20.1970   5.4060  19.5400   C.2       1 RES1   0.0000
    38 C38     21.0300  -6.8850  10.6690   C.2       1 RES1   0.0000
    39 C39     18.8640   2.0320  19.2990   C.2       1 RES1   0.0000
    40 C40     18.0010  -0.2360  19.2310   C.2       1 RES1   0.0000
    41 C41     23.1030  -4.7710  16.1450   C.2       1 RES1   0.0000
    42 C42     22.4270  -5.4160  13.9260   C.2       1 RES1   0.0000
    43 C43     18.9950   0.7490  17.1740   C.3       1 RES1   0.0000
    44 C44     22.2850  -2.9890  14.5600   C.3       1 RES1   0.0000
    45 C45     22.5010   3.0520  20.3910   C.2       1 RES1   0.0000
    46 C46     18.6610  -6.7460  13.3280   C.2       1 RES1   0.0000
    47 C47     22.1770   0.1220  18.7250   C.2       1 RES1   0.0000
    48 C48     19.1140  -4.2460  15.6400   C.2       1 RES1   0.0000
    49 C49     20.3740   5.3550  20.9480   C.2       1 RES1   0.0000
    50 C50     20.7800  -8.1420  11.2600   C.2       1 RES1   0.0000
    51 C51     20.3210   0.0220  17.1340   C.3       1 RES1   0.0000
    52 C52     20.9180  -2.6550  15.1960   C.3       1 RES1   0.0000
    53 C53     23.2810   1.0370  19.2430   C.3       1 RES1   0.0000
    54 C54     17.9900  -5.0230  14.9620   C.3       1 RES1   0.0000
    55 C55     24.5880   0.3000  19.5240   C.3       1 RES1   0.0000
    56 C56     16.7000  -5.1040  15.7690   C.3       1 RES1   0.0000
    57 C57     18.5960   0.8590  18.5930   C.2       1 RES1   0.0000
    58 C58     22.6340  -4.4130  14.8730   C.2       1 RES1   0.0000
    59 C59     20.8720  -0.1330  15.7130   C.3       1 RES1   0.0000
    60 C60     20.3100  -1.2790  14.8600   C.3       1 RES1   0.0000
@<TRIPOS>BOND
     1     1    59    1
     2     2    59    1
     3     3    45    2
     4     4    46    2
     5     5    47    2
     6     6    48    2
     7     7    60    1
     8     8    60    1
     9     9    23    2
    10     9    49    1
    11    10    24    2
    12    10    50    1
    13    11    45   am
    14    11    53    1
    15    12    46   am
    16    12    54    1
    17    13    47   am
    18    13    51    1
    19    14    48   am
    20    14    52    1
    21    15    17    1
    22    15    25    1
    23    15    45   am
    24    16    18    1
    25    16    26    1
    26    16    46   am
    27    19    55    1
    28    20    55    1
    29    21    56    1
    30    22    56    1
    31    23    27    1
    32    24    28    1
    33    25    49    1
    34    26    50    1
    35    27    31    2
    36    28    32    2
    37    29    33    2
    38    29    34    1
    39    30    35    2
    40    30    36    1
    41    31    37    1
    42    32    38    1
    43    33    39    1
    44    34    40    2
    45    35    41    1
    46    36    42    2
    47    37    49    2
    48    38    50    2
    49    39    57    2
    50    40    57    1
    51    41    58    2
    52    42    58    1
    53    43    51    1
    54    43    57    1
    55    44    52    1
    56    44    58    1
    57    47    53    1
    58    48    54    1
    59    51    59    1
    60    52    60    1
    61    53    55    1
    62    54    56    1
    63    59    60    1
@<TRIPOS>SUBSTRUCTURE
     1 RES1        1 GROUP             0 ****  ****    0  
@<TRIPOS>MOLECULE
2UPJ:A:U02100
    41    44     1     0     0
SMALL
NO_CHARGES
****
Generated from the CSD

@<TRIPOS>ATOM
     1 O1      21.5830   3.5740  24.3880   O.2       1 RES1   0.0000
     2 O2      20.8890  -2.4700  19.0640   O.2       1 RES1   0.0000
     3 O3      24.9110   3.7860  19.8530   O.2       1 RES1   0.0000
     4 O4      21.0710  -0.1980  14.8680   O.3       1 RES1   0.0000
     5 O5      20.9150  -3.5600  17.2270   O.3       1 RES1   0.0000
     6 O6      20.3620   4.1510  22.5510   O.3       1 RES1   0.0000
     7 N7      22.6340   4.5450  22.6370   N.am      1 RES1   0.0000
     8 N8      24.3950   2.1110  21.2260   N.am      1 RES1   0.0000
     9 C9      22.7150  -5.0760  14.5130   C.3       1 RES1   0.0000
    10 C10     18.7280   4.4790  24.3460   C.3       1 RES1   0.0000
    11 C11     19.3110   2.1670  23.6540   C.3       1 RES1   0.0000
    12 C12     18.1150   3.6680  22.0500   C.3       1 RES1   0.0000
    13 C13     23.9790   4.3500  23.2050   C.3       1 RES1   0.0000
    14 C14     21.2340  -5.2930  14.1270   C.3       1 RES1   0.0000
    15 C15     16.8160  -7.3440  12.2660   C.2       1 RES1   0.0000
    16 C16     16.1390  -6.2560  12.8020   C.2       1 RES1   0.0000
    17 C17     18.1460  -7.5550  12.6090   C.2       1 RES1   0.0000
    18 C18     24.8480   0.1040  18.1700   C.2       1 RES1   0.0000
    19 C19     25.1450   4.1880  22.2160   C.3       1 RES1   0.0000
    20 C20     25.0980   0.8680  19.3040   C.2       1 RES1   0.0000
    21 C21     16.7870  -5.3870  13.6710   C.2       1 RES1   0.0000
    22 C22     18.7970  -6.6870  13.4780   C.2       1 RES1   0.0000
    23 C23     23.5380  -0.1710  17.7990   C.2       1 RES1   0.0000
    24 C24     18.6360   0.7020  18.8420   C.3       1 RES1   0.0000
    25 C25     19.5880   1.4800  19.7290   C.3       1 RES1   0.0000
    26 C26     20.7430  -2.4770  15.0890   C.2       1 RES1   0.0000
    27 C27     22.7260   1.0850  19.7080   C.2       1 RES1   0.0000
    28 C28     18.8070  -4.6200  14.9290   C.3       1 RES1   0.0000
    29 C29     21.5640   4.0600  23.2470   C.2       1 RES1   0.0000
    30 C30     21.0360  -2.4150  17.8690   C.2       1 RES1   0.0000
    31 C31     24.8190   3.3420  20.9980   C.2       1 RES1   0.0000
    32 C32     20.8520  -1.2380  15.7230   C.2       1 RES1   0.0000
    33 C33     20.7450  -3.6240  15.8890   C.2       1 RES1   0.0000
    34 C34     24.0520   1.3690  20.0720   C.2       1 RES1   0.0000
    35 C35     18.1190  -5.5990  13.9990   C.2       1 RES1   0.0000
    36 C36     20.2900  -4.8740  15.2650   C.3       1 RES1   0.0000
    37 C37     20.0490   0.2130  19.0490   C.3       1 RES1   0.0000
    38 C38     22.4790   0.3420  18.5420   C.2       1 RES1   0.0000
    39 C39     20.9870  -1.2120  17.1350   C.2       1 RES1   0.0000
    40 C40     21.0820   0.0880  17.9680   C.3       1 RES1   0.0000
    41 C41     19.1710   3.6150  23.1640   C.3       1 RES1   0.0000
@<TRIPOS>BOND
     1     1    29    2
     2     2    30    2
     3     3    31    2
     4     4    32    1
     5     5    30    1
     6     5    33    1
     7     6    29    1
     8     6    41    1
     9     7    13    1
    10     7    29   am
    11     8    31   am
    12     8    34    1
    13     9    14    1
    14    10    41    1
    15    11    41    1
    16    12    41    1
    17    13    19    1
    18    14    36    1
    19    15    16    2
    20    15    17    1
    21    16    21    1
    22    17    22    2
    23    18    20    2
    24    18    23    1
    25    19    31    1
    26    20    34    1
    27    21    35    2
    28    22    35    1
    29    23    38    2
    30    24    25    1
    31    24    37    1
    32    25    37    1
    33    26    32    1
    34    26    33    2
    35    27    34    2
    36    27    38    1
    37    28    35    1
    38    28    36    1
    39    30    39    1
    40    32    39    2
    41    33    36    1
    42    37    40    1
    43    38    40    1
    44    39    40    1
@<TRIPOS>SUBSTRUCTURE
     1 RES1        1 GROUP             0 ****  ****    0  
@<TRIPOS>MOLECULE
1D4Y:A:TPV501
    42    45     1     0     0
SMALL
NO_CHARGES
****
Generated from the CSD

@<TRIPOS>ATOM
     1 S1      24.8190   3.0490  21.4590   S.o2      1 RES1   0.0000
     2 F2      19.1960   5.5770  19.4790   F         1 RES1   0.0000
     3 F3      18.4920   4.9790  21.6430   F         1 RES1   0.0000
     4 F4      18.5560   3.3560  19.9270   F         1 RES1   0.0000
     5 O5      25.5640   3.4810  20.2240   O.2       1 RES1   0.0000
     6 O6      25.3110   3.5350  22.7070   O.2       1 RES1   0.0000
     7 O7      21.1100  -3.2150  18.7520   O.2       1 RES1   0.0000
     8 O8      20.8650  -0.0820  15.2000   O.3       1 RES1   0.0000
     9 O9      20.5290  -3.8490  16.7600   O.3       1 RES1   0.0000
    10 N10     24.8990   1.4420  21.4960   N.2       1 RES1   0.0000
    11 N11     22.7630   3.8150  19.9610   N.2       1 RES1   0.0000
    12 C12     16.8400  -4.3360  15.2220   C.3       1 RES1   0.0000
    13 C13     18.7310   0.6360  18.6260   C.3       1 RES1   0.0000
    14 C14     21.4950   4.2100  19.7840   C.2       1 RES1   0.0000
    15 C15     18.1870  -3.6700  15.3650   C.2       1 RES1   0.0000
    16 C16     20.2280   0.8100  18.5120   C.3       1 RES1   0.0000
    17 C17     23.1710  -8.9110  12.5270   C.2       1 RES1   0.0000
    18 C18     23.0400  -8.7770  13.9290   C.2       1 RES1   0.0000
    19 C19     22.8980  -7.8010  11.6850   C.2       1 RES1   0.0000
    20 C20     24.9580  -0.0550  17.7590   C.2       1 RES1   0.0000
    21 C21     22.3000   3.5960  22.3250   C.2       1 RES1   0.0000
    22 C22     25.3070   0.4450  19.0310   C.2       1 RES1   0.0000
    23 C23     22.7060  -7.5280  14.4910   C.2       1 RES1   0.0000
    24 C24     22.8260  -6.5290  12.2800   C.2       1 RES1   0.0000
    25 C25     23.6120  -0.4570  17.5310   C.2       1 RES1   0.0000
    26 C26     22.1230  -5.1070  14.1200   C.2       1 RES1   0.0000
    27 C27     20.9500   3.9660  22.1070   C.2       1 RES1   0.0000
    28 C28     22.9620   0.6020  19.5900   C.2       1 RES1   0.0000
    29 C29     19.2300  -3.9840  14.6400   C.2       1 RES1   0.0000
    30 C30     21.6050  -4.7310  15.4350   C.3       1 RES1   0.0000
    31 C31     20.9500  -2.5050  14.8140   C.2       1 RES1   0.0000
    32 C32     23.1520   3.5010  21.2290   C.2       1 RES1   0.0000
    33 C33     20.9880  -2.9260  17.5820   C.2       1 RES1   0.0000
    34 C34     20.7970  -1.2980  15.7510   C.2       1 RES1   0.0000
    35 C35     24.3050   0.8260  19.9180   C.2       1 RES1   0.0000
    36 C36     22.4990  -6.4250  13.6680   C.2       1 RES1   0.0000
    37 C37     22.6290  -0.1380  18.4400   C.2       1 RES1   0.0000
    38 C38     21.1360  -0.4240  18.1670   C.3       1 RES1   0.0000
    39 C39     20.5380   4.2100  20.8070   C.2       1 RES1   0.0000
    40 C40     21.0940  -1.5190  17.1100   C.2       1 RES1   0.0000
    41 C41     19.0930   4.5550  20.4640   C.3       1 RES1   0.0000
    42 C42     20.6030  -3.6280  15.2890   C.3       1 RES1   0.0000
@<TRIPOS>BOND
     1     1     5    2
     2     1     6    2
     3     1    10    1
     4     1    32    1
     5     2    41    1
     6     3    41    1
     7     4    41    1
     8     7    33    2
     9     8    34    1
    10     9    33    1
    11     9    42    1
    12    10    35    1
    13    11    14    2
    14    11    32    1
    15    12    15    1
    16    13    16    1
    17    14    39    1
    18    15    29    2
    19    16    38    1
    20    17    18    2
    21    17    19    1
    22    18    23    1
    23    19    24    2
    24    20    22    2
    25    20    25    1
    26    21    27    1
    27    21    32    2
    28    22    35    1
    29    23    36    2
    30    24    36    1
    31    25    37    2
    32    26    30    1
    33    26    36    1
    34    27    39    2
    35    28    35    2
    36    28    37    1
    37    29    42    1
    38    30    42    1
    39    31    34    1
    40    31    42    1
    41    33    40    1
    42    34    40    2
    43    37    38    1
    44    38    40    1
    45    39    41    1
@<TRIPOS>SUBSTRUCTURE
     1 RES1        1 GROUP             0 ****  ****    0  
@<TRIPOS>MOLECULE
1RL8:A:RIT9001
    50    53     1     0     0
SMALL
NO_CHARGES
****
Generated from the CSD

@<TRIPOS>ATOM
     1 S1      25.0630   2.2450  21.1000   S.3       1 RES1   0.0000
     2 S2      23.8620  -8.2770  10.8850   S.3       1 RES1   0.0000
     3 O3      22.3910  -1.4500  18.6970   O.2       1 RES1   0.0000
     4 O4      19.0670  -6.1980  11.9500   O.2       1 RES1   0.0000
     5 O5      19.4600  -4.5610  16.6180   O.2       1 RES1   0.0000
     6 O6      20.8790   0.2280  14.4550   O.3       1 RES1   0.0000
     7 O7      23.5350   0.5590  18.5460   O.3       1 RES1   0.0000
     8 N8      26.6850   3.2280  19.1650   N.2       1 RES1   0.0000
     9 N9      21.6840   0.2000  17.2250   N.am      1 RES1   0.0000
    10 N10     22.2460  -9.8630  12.0810   N.2       1 RES1   0.0000
    11 N11     20.4560  -3.9860  14.6420   N.am      1 RES1   0.0000
    12 N12     18.6900  -6.5280  14.1790   N.am      1 RES1   0.0000
    13 N13     19.5490  -8.2630  12.9430   N.am      1 RES1   0.0000
    14 C14     19.6210  -9.1350  13.9550   C.2       1 RES1   0.0000
    15 C15     25.9210 -10.7380  11.3030   C.3       1 RES1   0.0000
    16 C16     24.3900 -11.5240  12.9670   C.3       1 RES1   0.0000
    17 C17     16.3860  -3.7070  15.5960   C.3       1 RES1   0.0000
    18 C18     15.8590  -5.7270  14.2220   C.3       1 RES1   0.0000
    19 C19     26.2000   3.3840  20.3460   C.2       1 RES1   0.0000
    20 C20     22.1110  -7.9390  10.8310   C.2       1 RES1   0.0000
    21 C21     24.5500   0.3110  19.4970   C.3       1 RES1   0.0000
    22 C22     26.2020   2.1470  18.6820   C.2       1 RES1   0.0000
    23 C23     20.0400  -8.8860  11.7000   C.2       1 RES1   0.0000
    24 C24     23.4540  -8.0120  16.0820   C.2       1 RES1   0.0000
    25 C25     17.9270   1.1890  20.8700   C.2       1 RES1   0.0000
    26 C26     23.0000  -7.8140  14.7550   C.2       1 RES1   0.0000
    27 C27     23.7210  -6.9070  16.9240   C.2       1 RES1   0.0000
    28 C28     17.7420  -0.1120  20.3050   C.2       1 RES1   0.0000
    29 C29     18.5530   2.2240  20.0870   C.2       1 RES1   0.0000
    30 C30     22.8160  -6.4690  14.2810   C.2       1 RES1   0.0000
    31 C31     23.5400  -5.5750  16.4620   C.2       1 RES1   0.0000
    32 C32     18.1640  -0.4160  18.9840   C.2       1 RES1   0.0000
    33 C33     18.9830   1.9380  18.7670   C.2       1 RES1   0.0000
    34 C34     21.7870  -1.8930  14.8920   C.3       1 RES1   0.0000
    35 C35     22.8680  -4.0350  14.5700   C.3       1 RES1   0.0000
    36 C36     19.1560   0.1210  16.9130   C.3       1 RES1   0.0000
    37 C37     22.5060  -0.3260  18.1870   C.2       1 RES1   0.0000
    38 C38     19.1040  -6.9560  12.9550   C.2       1 RES1   0.0000
    39 C39     23.5260  -9.7200  11.8610   C.2       1 RES1   0.0000
    40 C40     19.4630  -4.5220  15.3640   C.2       1 RES1   0.0000
    41 C41     25.3470   1.4880  19.5150   C.2       1 RES1   0.0000
    42 C42     20.6530  -0.9470  15.1900   C.3       1 RES1   0.0000
    43 C43     21.5030  -8.9320  11.5500   C.2       1 RES1   0.0000
    44 C44     21.6560  -3.3950  15.2060   C.3       1 RES1   0.0000
    45 C45     20.5330  -0.5470  16.6700   C.3       1 RES1   0.0000
    46 C46     18.3440  -5.1190  14.4960   C.3       1 RES1   0.0000
    47 C47     24.7260 -10.3320  12.1600   C.3       1 RES1   0.0000
    48 C48     16.9170  -5.0970  15.1600   C.3       1 RES1   0.0000
    49 C49     23.0840  -5.3580  15.1370   C.2       1 RES1   0.0000
    50 C50     18.7870   0.6180  18.2220   C.2       1 RES1   0.0000
@<TRIPOS>BOND
     1     1    19    1
     2     1    41    1
     3     2    20    1
     4     2    39    1
     5     3    37    2
     6     4    38    2
     7     5    40    2
     8     6    42    1
     9     7    21    1
    10     7    37    1
    11     8    19    2
    12     8    22    1
    13     9    37   am
    14     9    45    1
    15    10    39    2
    16    10    43    1
    17    11    40   am
    18    11    44    1
    19    12    38   am
    20    12    46    1
    21    13    14    1
    22    13    23    1
    23    13    38   am
    24    15    47    1
    25    16    47    1
    26    17    48    1
    27    18    48    1
    28    20    43    2
    29    21    41    1
    30    22    41    2
    31    23    43    1
    32    24    26    2
    33    24    27    1
    34    25    28    2
    35    25    29    1
    36    26    30    1
    37    27    31    2
    38    28    32    1
    39    29    33    2
    40    30    49    2
    41    31    49    1
    42    32    50    2
    43    33    50    1
    44    34    42    1
    45    34    44    1
    46    35    44    1
    47    35    49    1
    48    36    45    1
    49    36    50    1
    50    39    47    1
    51    40    46    1
    52    42    45    1
    53    46    48    1
@<TRIPOS>SUBSTRUCTURE
     1 RES1        1 GROUP             0 ****  ****    0  
@<TRIPOS>MOLECULE
2QNQ:A:QN32501
    41    45     1     0     0
SMALL
NO_CHARGES
****
Generated from the CSD

@<TRIPOS>ATOM
     1 Cl1     26.1610   0.7420  17.7670   Cl        1 RES1   0.0000
     2 Cl2     19.8570  -5.2550  16.5420   Cl        1 RES1   0.0000
     3 S3      23.6550  -1.1690  18.9220   S.o2      1 RES1   0.0000
     4 S4      18.8240  -2.6330  18.5340   S.o2      1 RES1   0.0000
     5 O5      22.6010  -1.7690  19.7160   O.2       1 RES1   0.0000
     6 O6      24.9000  -1.9270  18.8100   O.2       1 RES1   0.0000
     7 O7      20.0610  -3.3410  18.8370   O.2       1 RES1   0.0000
     8 O8      17.7290  -2.4360  19.4750   O.2       1 RES1   0.0000
     9 N9      21.0940   0.0290  14.8280   N.2       1 RES1   0.0000
    10 N10     23.0230  -0.9530  17.3140   N.pl3     1 RES1   0.0000
    11 N11     19.3340  -1.1180  17.7510   N.pl3     1 RES1   0.0000
    12 C12     21.6220   0.7820  15.9930   C.3       1 RES1   0.0000
    13 C13     20.1690  -1.0060  15.3430   C.3       1 RES1   0.0000
    14 C14     22.8720  -5.5670  14.8720   C.2       1 RES1   0.0000
    15 C15     19.8140   2.7710  21.3190   C.2       1 RES1   0.0000
    16 C16     24.8450   2.8620  20.9660   C.2       1 RES1   0.0000
    17 C17     16.3280  -4.2370  14.8970   C.2       1 RES1   0.0000
    18 C18     23.7760   2.0650  21.4680   C.2       1 RES1   0.0000
    19 C19     15.8900  -3.1530  15.6960   C.2       1 RES1   0.0000
    20 C20     23.2580  -5.3140  16.2190   C.2       1 RES1   0.0000
    21 C21     22.7910  -4.4900  13.9450   C.2       1 RES1   0.0000
    22 C22     19.9800   1.3580  21.4340   C.2       1 RES1   0.0000
    23 C23     19.2590   3.3180  20.1300   C.2       1 RES1   0.0000
    24 C24     23.8290  -1.4570  16.1730   C.3       1 RES1   0.0000
    25 C25     18.6030   0.1470  18.0160   C.3       1 RES1   0.0000
    26 C26     25.5680   2.4340  19.8160   C.2       1 RES1   0.0000
    27 C27     17.5630  -4.8670  15.1860   C.2       1 RES1   0.0000
    28 C28     23.4350   0.8440  20.8190   C.2       1 RES1   0.0000
    29 C29     16.6920  -2.7070  16.7820   C.2       1 RES1   0.0000
    30 C30     23.5610  -3.9880  16.6370   C.2       1 RES1   0.0000
    31 C31     23.0960  -3.1670  14.3660   C.2       1 RES1   0.0000
    32 C32     19.5950   0.4950  20.3670   C.2       1 RES1   0.0000
    33 C33     18.8740   2.4540  19.0680   C.2       1 RES1   0.0000
    34 C34     25.2270   1.2090  19.1630   C.2       1 RES1   0.0000
    35 C35     18.3720  -4.4260  16.2750   C.2       1 RES1   0.0000
    36 C36     24.1440   0.3980  19.6670   C.2       1 RES1   0.0000
    37 C37     17.9450  -3.3300  17.0980   C.2       1 RES1   0.0000
    38 C38     23.4860  -2.8980  15.7150   C.2       1 RES1   0.0000
    39 C39     19.0400   1.0380  19.1800   C.2       1 RES1   0.0000
    40 C40     21.7170  -0.2430  17.1550   C.3       1 RES1   0.0000
    41 C41     20.5210  -1.2270  16.8430   C.3       1 RES1   0.0000
@<TRIPOS>BOND
     1     1    34    1
     2     2    35    1
     3     3     5    2
     4     3     6    2
     5     3    10    1
     6     3    36    1
     7     4     7    2
     8     4     8    2
     9     4    11    1
    10     4    37    1
    11     9    12    1
    12     9    13    1
    13    10    24    1
    14    10    40    1
    15    11    25    1
    16    11    41    1
    17    12    40    1
    18    13    41    1
    19    14    20    2
    20    14    21    1
    21    15    22    2
    22    15    23    1
    23    16    18    2
    24    16    26    1
    25    17    19    2
    26    17    27    1
    27    18    28    1
    28    19    29    1
    29    20    30    1
    30    21    31    2
    31    22    32    1
    32    23    33    2
    33    24    38    1
    34    25    39    1
    35    26    34    2
    36    27    35    2
    37    28    36    2
    38    29    37    2
    39    30    38    2
    40    31    38    1
    41    32    39    2
    42    33    39    1
    43    34    36    1
    44    35    37    1
    45    40    41    1
@<TRIPOS>SUBSTRUCTURE
     1 RES1        1 GROUP             0 ****  ****    0  
@<TRIPOS>MOLECULE
5YOK:A:8Z0101
    54    59     1     0     0
SMALL
NO_CHARGES
****
Generated from the CSD

@<TRIPOS>ATOM
     1 S1      23.0620  -4.6390  15.7340   S.3       1 RES1   0.0000
     2 O2      19.7590  -4.3890  16.4810   O.2       1 RES1   0.0000
     3 O3      22.5370   3.9010  19.2990   O.2       1 RES1   0.0000
     4 O4      22.6980  -1.0530  18.6800   O.2       1 RES1   0.0000
     5 O5      19.6260  -1.6510  14.1660   O.2       1 RES1   0.0000
     6 O6      20.8930   0.7560  14.6660   O.3       1 RES1   0.0000
     7 O7      19.7550   0.8860  24.1230   O.3       1 RES1   0.0000
     8 O8      26.2940   2.3340  18.9660   O.3       1 RES1   0.0000
     9 O9      20.8670   2.3900  22.0680   O.3       1 RES1   0.0000
    10 N10     18.8390  -5.2690  14.6180   N.am      1 RES1   0.0000
    11 N11     21.6600   0.6180  17.5810   N.am      1 RES1   0.0000
    12 N12     22.6080   1.8000  20.1900   N.am      1 RES1   0.0000
    13 N13     21.4230  -2.8050  14.9130   N.am      1 RES1   0.0000
    14 C14     19.2620   0.2360  25.2540   C.2       1 RES1   0.0000
    15 C15     16.2600  -3.3930  15.6000   C.3       1 RES1   0.0000
    16 C16     16.6920  -7.9500  13.3760   C.3       1 RES1   0.0000
    17 C17     22.8870  -4.5710  13.0100   C.3       1 RES1   0.0000
    18 C18     21.7410  -6.4590  14.1540   C.3       1 RES1   0.0000
    19 C19     22.7190  -2.8580  15.5830   C.3       1 RES1   0.0000
    20 C20     26.7860   1.1300  18.4280   C.3       1 RES1   0.0000
    21 C21     25.5920   1.9260  20.1280   C.3       1 RES1   0.0000
    22 C22     17.7190  -5.9320  15.2940   C.3       1 RES1   0.0000
    23 C23     17.8860   0.9760  20.8550   C.2       1 RES1   0.0000
    24 C24     18.2760   2.0130  20.0320   C.2       1 RES1   0.0000
    25 C25     17.9740  -0.3100  20.3620   C.2       1 RES1   0.0000
    26 C26     13.9570  -5.3450  13.3190   C.2       1 RES1   0.0000
    27 C27     18.1370   4.3590  24.3990   C.2       1 RES1   0.0000
    28 C28     18.4490   2.9710  24.7030   C.2       1 RES1   0.0000
    29 C29     25.6280   0.1320  18.5240   C.3       1 RES1   0.0000
    30 C30     14.4670  -4.3410  14.1260   C.2       1 RES1   0.0000
    31 C31     14.6600  -6.4730  13.0880   C.2       1 RES1   0.0000
    32 C32     18.7390   1.8150  18.7530   C.2       1 RES1   0.0000
    33 C33     18.4510  -0.5580  19.0850   C.2       1 RES1   0.0000
    34 C34     18.7470   5.0260  23.3750   C.2       1 RES1   0.0000
    35 C35     20.5440   4.5700  21.4490   C.2       1 RES1   0.0000
    36 C36     19.3200   0.3020  16.8780   C.3       1 RES1   0.0000
    37 C37     19.7770  -4.5740  15.2630   C.2       1 RES1   0.0000
    38 C38     22.1790   3.0660  20.1390   C.2       1 RES1   0.0000
    39 C39     22.5560   0.1440  18.4260   C.2       1 RES1   0.0000
    40 C40     20.7240  -1.6720  14.7650   C.2       1 RES1   0.0000
    41 C41     21.2610  -0.3980  15.3850   C.3       1 RES1   0.0000
    42 C42     19.3680   2.2460  24.0020   C.2       1 RES1   0.0000
    43 C43     21.1990   3.4280  21.1930   C.2       1 RES1   0.0000
    44 C44     19.9680   2.9220  22.9130   C.2       1 RES1   0.0000
    45 C45     20.7530  -0.2360  16.8280   C.3       1 RES1   0.0000
    46 C46     23.4320   1.2200  19.1240   C.3       1 RES1   0.0000
    47 C47     15.7040  -4.5170  14.7410   C.2       1 RES1   0.0000
    48 C48     15.9120  -6.6880  13.6830   C.2       1 RES1   0.0000
    49 C49     20.8770  -4.0360  14.3770   C.3       1 RES1   0.0000
    50 C50     18.8280   0.5110  18.2880   C.2       1 RES1   0.0000
    51 C51     24.7530   0.7180  19.6600   C.3       1 RES1   0.0000
    52 C52     19.6550   4.2790  22.5700   C.2       1 RES1   0.0000
    53 C53     16.4150  -5.7170  14.5360   C.2       1 RES1   0.0000
    54 C54     22.0880  -4.9960  14.2310   C.3       1 RES1   0.0000
@<TRIPOS>BOND
     1     1    19    1
     2     1    54    1
     3     2    37    2
     4     3    38    2
     5     4    39    2
     6     5    40    2
     7     6    41    1
     8     7    14    1
     9     7    42    1
    10     8    20    1
    11     8    21    1
    12     9    43    1
    13     9    44    1
    14    10    22    1
    15    10    37   am
    16    11    39   am
    17    11    45    1
    18    12    38   am
    19    12    46    1
    20    13    19    1
    21    13    40   am
    22    13    49    1
    23    15    47    1
    24    16    48    1
    25    17    54    1
    26    18    54    1
    27    20    29    1
    28    21    51    1
    29    22    53    1
    30    23    24    2
    31    23    25    1
    32    24    32    1
    33    25    33    2
    34    26    30    2
    35    26    31    1
    36    27    28    2
    37    27    34    1
    38    28    42    1
    39    29    51    1
    40    30    47    1
    41    31    48    2
    42    32    50    2
    43    33    50    1
    44    34    52    2
    45    35    43    2
    46    35    52    1
    47    36    45    1
    48    36    50    1
    49    37    49    1
    50    38    43    1
    51    39    46    1
    52    40    41    1
    53    41    45    1
    54    42    44    2
    55    44    52    1
    56    46    51    1
    57    47    53    2
    58    48    53    1
    59    49    54    1
@<TRIPOS>SUBSTRUCTURE
     1 RES1        1 GROUP             0 ****  ****    0  
@<TRIPOS>MOLECULE
4FE6:A:0TQ200
    45    49     1     0     0
SMALL
NO_CHARGES
****
Generated from the CSD

@<TRIPOS>ATOM
     1 S1      22.7830  -1.3230  18.5900   S.o2      1 RES1   0.0000
     2 O2      23.2670  -2.4630  17.8410   O.2       1 RES1   0.0000
     3 O3      22.3410  -1.7120  19.8760   O.2       1 RES1   0.0000
     4 O4      19.4150  -4.5370  16.5150   O.2       1 RES1   0.0000
     5 O5      26.6970   4.4100  20.8320   O.2       1 RES1   0.0000
     6 O6      21.0990  -0.7710  14.1290   O.3       1 RES1   0.0000
     7 O7      18.4650  -6.6330  12.0250   O.3       1 RES1   0.0000
     8 O8      16.2200  -6.1660  12.9030   O.3       1 RES1   0.0000
     9 O9      18.4950  -4.8570  14.4050   O.3       1 RES1   0.0000
    10 N10     24.7080   4.6300  22.4030   N.2       1 RES1   0.0000
    11 N11     20.0660  -3.1760  14.8150   N.am      1 RES1   0.0000
    12 N12     26.7870   2.6580  19.3210   N.am      1 RES1   0.0000
    13 N13     21.7360  -0.4940  17.7900   N.pl3     1 RES1   0.0000
    14 C14     24.4340   5.0300  23.7640   C.3       1 RES1   0.0000
    15 C15     22.8630   3.0330  22.2830   C.3       1 RES1   0.0000
    16 C16     18.6460   1.5190  18.2550   C.3       1 RES1   0.0000
    17 C17     18.7530  -0.9170  18.6290   C.3       1 RES1   0.0000
    18 C18     19.6370  -7.2450  12.5460   C.3       1 RES1   0.0000
    19 C19     16.2340  -5.4070  14.1160   C.3       1 RES1   0.0000
    20 C20     21.8560  -0.3530  16.3190   C.3       1 RES1   0.0000
    21 C21     20.7820   0.3930  18.4890   C.3       1 RES1   0.0000
    22 C22     22.9510  -7.4240  14.9730   C.2       1 RES1   0.0000
    23 C23     22.9150  -6.6000  16.1140   C.2       1 RES1   0.0000
    24 C24     22.8650  -6.7830  13.7370   C.2       1 RES1   0.0000
    25 C25     19.4520  -7.1880  14.0440   C.3       1 RES1   0.0000
    26 C26     25.0120  -0.2860  17.9880   C.2       1 RES1   0.0000
    27 C27     26.0010   0.6530  18.1280   C.2       1 RES1   0.0000
    28 C28     22.7860  -5.2240  16.0690   C.2       1 RES1   0.0000
    29 C29     22.7490  -5.4020  13.6590   C.2       1 RES1   0.0000
    30 C30     23.7480   0.7610  19.7440   C.2       1 RES1   0.0000
    31 C31     22.5280  -3.1020  14.7430   C.3       1 RES1   0.0000
    32 C32     19.3580  -4.1900  15.3460   C.2       1 RES1   0.0000
    33 C33     26.2280   3.3810  20.2760   C.2       1 RES1   0.0000
    34 C34     17.3590  -7.0600  12.8420   C.3       1 RES1   0.0000
    35 C35     23.9130  -0.2490  18.8020   C.2       1 RES1   0.0000
    36 C36     20.9230  -1.1860  15.4750   C.3       1 RES1   0.0000
    37 C37     17.5120  -5.7840  14.8500   C.3       1 RES1   0.0000
    38 C38     24.1720   3.5360  21.8260   C.2       1 RES1   0.0000
    39 C39     21.2310  -2.6680  15.4730   C.3       1 RES1   0.0000
    40 C40     25.8970   1.6690  19.0470   C.2       1 RES1   0.0000
    41 C41     19.3880   0.2500  17.8910   C.3       1 RES1   0.0000
    42 C42     22.6990  -4.6080  14.8200   C.2       1 RES1   0.0000
    43 C43     17.9390  -7.0970  14.2320   C.3       1 RES1   0.0000
    44 C44     24.7560   1.7000  19.8710   C.2       1 RES1   0.0000
    45 C45     24.9460   2.8860  20.7270   C.2       1 RES1   0.0000
@<TRIPOS>BOND
     1     1     2    2
     2     1     3    2
     3     1    13    1
     4     1    35    1
     5     4    32    2
     6     5    33    2
     7     6    36    1
     8     7    18    1
     9     7    34    1
    10     8    19    1
    11     8    34    1
    12     9    32    1
    13     9    37    1
    14    10    14    1
    15    10    38    1
    16    11    32   am
    17    11    39    1
    18    12    33   am
    19    12    40    1
    20    13    20    1
    21    13    21    1
    22    15    38    1
    23    16    41    1
    24    17    41    1
    25    18    25    1
    26    19    37    1
    27    20    36    1
    28    21    41    1
    29    22    23    2
    30    22    24    1
    31    23    28    1
    32    24    29    2
    33    25    43    1
    34    26    27    1
    35    26    35    2
    36    27    40    2
    37    28    42    2
    38    29    42    1
    39    30    35    1
    40    30    44    2
    41    31    39    1
    42    31    42    1
    43    33    45    1
    44    34    43    1
    45    36    39    1
    46    37    43    1
    47    38    45    2
    48    40    44    1
    49    44    45    1
@<TRIPOS>SUBSTRUCTURE
     1 RES1        1 GROUP             0 ****  ****    0  
@<TRIPOS>MOLECULE
2O4K:A:DR7301
    51    53     1     0     0
SMALL
NO_CHARGES
****
Generated from the CSD

@<TRIPOS>ATOM
     1 O1      22.9300   3.7140  19.4910   O.2       1 RES1   0.0000
     2 O2      18.5700  -6.1960  11.9820   O.2       1 RES1   0.0000
     3 O3      21.8690  -1.1280  19.1540   O.2       1 RES1   0.0000
     4 O4      19.4250  -4.5310  16.6300   O.2       1 RES1   0.0000
     5 O5      20.9840  -0.8140  13.7930   O.3       1 RES1   0.0000
     6 O6      22.1840   3.3890  21.6590   O.3       1 RES1   0.0000
     7 O7      19.5100  -8.0900  12.8590   O.3       1 RES1   0.0000
     8 N8      21.1830   0.4700  17.6560   N.am      1 RES1   0.0000
     9 N9      18.4770   2.7520  23.7690   N.2       1 RES1   0.0000
    10 N10     22.6620   1.5700  20.2460   N.am      1 RES1   0.0000
    11 N11     18.8900  -6.2550  14.2240   N.am      1 RES1   0.0000
    12 N12     20.2090  -3.3930  14.8030   N.am      1 RES1   0.0000
    13 N13     19.9830  -0.0520  17.0750   N.3       1 RES1   0.0000
    14 C14     21.9410   4.7850  21.8270   C.3       1 RES1   0.0000
    15 C15     19.7910  -8.5740  11.5390   C.3       1 RES1   0.0000
    16 C16     24.8050  -0.4920  17.8630   C.3       1 RES1   0.0000
    17 C17     25.5190   1.4320  19.2400   C.3       1 RES1   0.0000
    18 C18     24.6510  -0.5880  20.3460   C.3       1 RES1   0.0000
    19 C19     16.7990  -6.0190  16.2130   C.3       1 RES1   0.0000
    20 C20     16.4170  -3.6400  15.4980   C.3       1 RES1   0.0000
    21 C21     15.9630  -5.5190  13.9770   C.3       1 RES1   0.0000
    22 C22     18.5220   3.0390  25.0800   C.2       1 RES1   0.0000
    23 C23     19.8120  -0.8140  15.8570   C.3       1 RES1   0.0000
    24 C24     18.6800   0.3490  17.6150   C.3       1 RES1   0.0000
    25 C25     18.9310   2.0670  25.9940   C.2       1 RES1   0.0000
    26 C26     22.9970  -7.3990  14.9650   C.2       1 RES1   0.0000
    27 C27     19.2960   0.8020  25.5380   C.2       1 RES1   0.0000
    28 C28     23.2230  -6.6150  16.1010   C.2       1 RES1   0.0000
    29 C29     22.6470  -6.7950  13.7580   C.2       1 RES1   0.0000
    30 C30     19.2450   0.5300  24.1720   C.2       1 RES1   0.0000
    31 C31     23.0970  -5.2260  16.0440   C.2       1 RES1   0.0000
    32 C32     22.5230  -5.4060  13.6950   C.2       1 RES1   0.0000
    33 C33     18.4450  -0.3050  19.9900   C.2       1 RES1   0.0000
    34 C34     19.0310   1.9900  19.5180   C.2       1 RES1   0.0000
    35 C35     18.4720  -0.0280  21.3520   C.2       1 RES1   0.0000
    36 C36     19.0650   2.2610  20.8910   C.2       1 RES1   0.0000
    37 C37     22.6070  -3.1090  14.7780   C.3       1 RES1   0.0000
    38 C38     22.6270   2.8990  20.3790   C.2       1 RES1   0.0000
    39 C39     18.9540  -6.7700  12.9970   C.2       1 RES1   0.0000
    40 C40     21.9840  -0.0360  18.6030   C.2       1 RES1   0.0000
    41 C41     19.3690  -4.2550  15.4290   C.2       1 RES1   0.0000
    42 C42     21.1070  -1.1650  15.1880   C.3       1 RES1   0.0000
    43 C43     18.8260   1.5300  23.2870   C.2       1 RES1   0.0000
    44 C44     21.3060  -2.6570  15.4490   C.3       1 RES1   0.0000
    45 C45     23.0860   0.9170  19.0000   C.3       1 RES1   0.0000
    46 C46     18.3570  -4.9290  14.5200   C.3       1 RES1   0.0000
    47 C47     18.7280   0.7030  19.0810   C.2       1 RES1   0.0000
    48 C48     22.7410  -4.6180  14.8340   C.2       1 RES1   0.0000
    49 C49     18.7780   1.2530  21.8150   C.2       1 RES1   0.0000
    50 C50     24.4900   0.3100  19.1230   C.3       1 RES1   0.0000
    51 C51     16.9150  -5.0190  15.0570   C.3       1 RES1   0.0000
@<TRIPOS>BOND
     1     1    38    2
     2     2    39    2
     3     3    40    2
     4     4    41    2
     5     5    42    1
     6     6    14    1
     7     6    38    1
     8     7    15    1
     9     7    39    1
    10     8    13    1
    11     8    40   am
    12     9    22    2
    13     9    43    1
    14    10    38   am
    15    10    45    1
    16    11    39   am
    17    11    46    1
    18    12    41   am
    19    12    44    1
    20    13    23    1
    21    13    24    1
    22    16    50    1
    23    17    50    1
    24    18    50    1
    25    19    51    1
    26    20    51    1
    27    21    51    1
    28    22    25    1
    29    23    42    1
    30    24    47    1
    31    25    27    2
    32    26    28    2
    33    26    29    1
    34    27    30    1
    35    28    31    1
    36    29    32    2
    37    30    43    2
    38    31    48    2
    39    32    48    1
    40    33    35    2
    41    33    47    1
    42    34    36    1
    43    34    47    2
    44    35    49    1
    45    36    49    2
    46    37    44    1
    47    37    48    1
    48    40    45    1
    49    41    46    1
    50    42    44    1
    51    43    49    1
    52    45    50    1
    53    46    51    1
@<TRIPOS>SUBSTRUCTURE
     1 RES1        1 GROUP             0 ****  ****    0  
@<TRIPOS>MOLECULE
7UPJ:A:INU100
    34    38     1     0     0
SMALL
NO_CHARGES
****
Generated from the CSD

@<TRIPOS>ATOM
     1 S1      23.7050   3.3980  21.3990   S.o2      1 RES1   0.0000
     2 O2      24.2890   3.8160  22.6550   O.2       1 RES1   0.0000
     3 O3      24.4370   3.7430  20.2130   O.2       1 RES1   0.0000
     4 O4      20.5200  -2.8090  19.2730   O.2       1 RES1   0.0000
     5 O5      20.8800  -0.5870  15.1610   O.3       1 RES1   0.0000
     6 O6      20.5610  -4.0810  17.5250   O.3       1 RES1   0.0000
     7 N7      23.7220   1.7350  21.4950   N.2       1 RES1   0.0000
     8 C8      23.1570  -5.2280  14.9200   C.3       1 RES1   0.0000
     9 C9      22.9550  -4.7760  13.4550   C.3       1 RES1   0.0000
    10 C10     19.2770   4.4410  21.3530   C.2       1 RES1   0.0000
    11 C11     19.9000   4.0120  22.5450   C.2       1 RES1   0.0000
    12 C12     20.0200   4.5560  20.1590   C.2       1 RES1   0.0000
    13 C13     22.0740  -6.1340  15.4820   C.3       1 RES1   0.0000
    14 C14     22.3930  -3.3510  13.2450   C.3       1 RES1   0.0000
    15 C15     24.4690   0.1850  18.1760   C.2       1 RES1   0.0000
    16 C16     21.2560   3.7030  22.5570   C.2       1 RES1   0.0000
    17 C17     21.3870   4.2470  20.1480   C.2       1 RES1   0.0000
    18 C18     20.6970  -5.5100  15.5660   C.3       1 RES1   0.0000
    19 C19     24.6600   0.7790  19.4290   C.2       1 RES1   0.0000
    20 C20     23.1930  -0.1890  17.7160   C.2       1 RES1   0.0000
    21 C21     20.9400  -3.0660  13.8050   C.3       1 RES1   0.0000
    22 C22     18.1830   0.3770  18.4890   C.3       1 RES1   0.0000
    23 C23     19.0180   1.2940  19.3790   C.3       1 RES1   0.0000
    24 C24     22.2410   0.6380  19.8120   C.2       1 RES1   0.0000
    25 C25     20.5590  -2.8550  18.0870   C.2       1 RES1   0.0000
    26 C26     22.0150   3.8200  21.3560   C.2       1 RES1   0.0000
    27 C27     20.7740  -1.7090  15.9360   C.2       1 RES1   0.0000
    28 C28     20.6790  -4.0940  16.1190   C.2       1 RES1   0.0000
    29 C29     23.5380   1.0210  20.2660   C.2       1 RES1   0.0000
    30 C30     19.5260  -0.0910  19.0260   C.3       1 RES1   0.0000
    31 C31     22.0600   0.0370  18.5370   C.2       1 RES1   0.0000
    32 C32     20.7880  -2.9530  15.3090   C.2       1 RES1   0.0000
    33 C33     20.6540  -1.6450  17.3320   C.2       1 RES1   0.0000
    34 C34     20.6820  -0.2940  18.0230   C.3       1 RES1   0.0000
@<TRIPOS>BOND
     1     1     2    2
     2     1     3    2
     3     1     7    1
     4     1    26    1
     5     4    25    2
     6     5    27    1
     7     6    25    1
     8     6    28    1
     9     7    29    1
    10     8     9    1
    11     8    13    1
    12     9    14    1
    13    10    11    2
    14    10    12    1
    15    11    16    1
    16    12    17    2
    17    13    18    1
    18    14    21    1
    19    15    19    2
    20    15    20    1
    21    16    26    2
    22    17    26    1
    23    18    28    1
    24    19    29    1
    25    20    31    2
    26    21    32    1
    27    22    23    1
    28    22    30    1
    29    23    30    1
    30    24    29    2
    31    24    31    1
    32    25    33    1
    33    27    32    1
    34    27    33    2
    35    28    32    2
    36    30    34    1
    37    31    34    1
    38    33    34    1
@<TRIPOS>SUBSTRUCTURE
     1 RES1        1 GROUP             0 ****  ****    0  
@<TRIPOS>MOLECULE
3T11:A:3T1101
    32    36     1     0     0
SMALL
NO_CHARGES
****
Generated from the CSD

@<TRIPOS>ATOM
     1 Cl1     18.9500   0.7470  23.7700   Cl        1 RES1   0.0000
     2 O2      23.3710   2.1390  19.3800   O.2       1 RES1   0.0000
     3 O3      17.7760   3.6290  23.2700   O.3       1 RES1   0.0000
     4 O4      18.1100   5.0940  21.1340   O.3       1 RES1   0.0000
     5 N5      20.3610  -1.5530  19.4520   N.2       1 RES1   0.0000
     6 N6      19.9580   0.9930  17.9030   N.2       1 RES1   0.0000
     7 C7      18.3130   5.9700  19.9830   C.3       1 RES1   0.0000
     8 C8      27.0720  -4.1110  21.2660   C.2       1 RES1   0.0000
     9 C9      26.1650  -3.5130  22.1510   C.2       1 RES1   0.0000
    10 C10     27.0050  -3.8020  19.9000   C.2       1 RES1   0.0000
    11 C11     16.8150  -1.3480  19.0510   C.2       1 RES1   0.0000
    12 C12     16.6030  -0.1640  18.3290   C.2       1 RES1   0.0000
    13 C13     18.1050  -1.7680  19.4210   C.2       1 RES1   0.0000
    14 C14     17.7120   0.6010  17.9320   C.2       1 RES1   0.0000
    15 C15     25.1800  -2.6520  21.6600   C.2       1 RES1   0.0000
    16 C16     26.0450  -2.9190  19.4150   C.2       1 RES1   0.0000
    17 C17     19.8960   1.3170  21.2910   C.2       1 RES1   0.0000
    18 C18     24.3020   0.0460  20.1540   C.3       1 RES1   0.0000
    19 C19     19.4990   3.3420  20.0740   C.2       1 RES1   0.0000
    20 C20     22.6560  -1.8800  20.1040   C.3       1 RES1   0.0000
    21 C21     19.1340   1.7910  22.3730   C.2       1 RES1   0.0000
    22 C22     23.1530   0.9480  19.6040   C.2       1 RES1   0.0000
    23 C23     18.5450   3.0610  22.2730   C.2       1 RES1   0.0000
    24 C24     18.7340   3.8430  21.1370   C.2       1 RES1   0.0000
    25 C25     19.2010  -1.0230  19.0320   C.2       1 RES1   0.0000
    26 C26     18.9980   0.1460  18.2730   C.2       1 RES1   0.0000
    27 C27     21.5690  -0.9050  19.6000   C.2       1 RES1   0.0000
    28 C28     20.9130   1.5580  18.9300   C.3       1 RES1   0.0000
    29 C29     25.1270  -2.3610  20.2920   C.2       1 RES1   0.0000
    30 C30     20.1000   2.0950  20.1490   C.2       1 RES1   0.0000
    31 C31     24.0660  -1.4160  19.7340   C.3       1 RES1   0.0000
    32 C32     21.8570   0.4600  19.3850   C.2       1 RES1   0.0000
@<TRIPOS>BOND
     1     1    21    1
     2     2    22    2
     3     3    23    1
     4     4     7    1
     5     4    24    1
     6     5    25    1
     7     5    27    1
     8     6    26    1
     9     6    28    1
    10     8     9    2
    11     8    10    1
    12     9    15    1
    13    10    16    2
    14    11    12    2
    15    11    13    1
    16    12    14    1
    17    13    25    2
    18    14    26    2
    19    15    29    2
    20    16    29    1
    21    17    21    2
    22    17    30    1
    23    18    22    1
    24    18    31    1
    25    19    24    1
    26    19    30    2
    27    20    27    1
    28    20    31    1
    29    21    23    1
    30    22    32    1
    31    23    24    2
    32    25    26    1
    33    27    32    2
    34    28    30    1
    35    28    32    1
    36    29    31    1
@<TRIPOS>SUBSTRUCTURE
     1 RES1        1 GROUP             0 ****  ****    0  
@<TRIPOS>MOLECULE
2ZGA:A:YDP2501
    21    21     1     0     0
SMALL
NO_CHARGES
****
Generated from the CSD

@<TRIPOS>ATOM
     1 S1      21.7670  -4.6550  16.7760   S.o2      1 RES1   0.0000
     2 O2      21.1400  -5.5720  17.7040   O.2       1 RES1   0.0000
     3 O3      22.9800  -3.9220  17.0860   O.2       1 RES1   0.0000
     4 O4      22.8470  -8.9830  11.6380   O.2       1 RES1   0.0000
     5 N5      20.9140  -0.2540  14.4020   N.3       1 RES1   0.0000
     6 N6      23.5890  -7.1410  10.6170   N.am      1 RES1   0.0000
     7 N7      20.6120  -3.4820  16.2540   N.pl3     1 RES1   0.0000
     8 C8      17.1240  -5.7650  13.5810   C.3       1 RES1   0.0000
     9 C9      16.7470  -5.7440  16.1190   C.3       1 RES1   0.0000
    10 C10     20.8740  -1.7280  14.4010   C.3       1 RES1   0.0000
    11 C11     21.1630  -2.1750  15.8530   C.3       1 RES1   0.0000
    12 C12     19.1960  -3.8490  16.2740   C.3       1 RES1   0.0000
    13 C13     18.6400  -4.4640  15.0160   C.2       1 RES1   0.0000
    14 C14     21.8680  -6.9620  15.2550   C.2       1 RES1   0.0000
    15 C15     22.6870  -4.9570  14.2000   C.2       1 RES1   0.0000
    16 C16     22.1610  -7.6620  14.0780   C.2       1 RES1   0.0000
    17 C17     22.9870  -5.6600  13.0260   C.2       1 RES1   0.0000
    18 C18     23.1030  -7.7930  11.7030   C.2       1 RES1   0.0000
    19 C19     22.1320  -5.5930  15.3110   C.2       1 RES1   0.0000
    20 C20     17.5690  -5.2780  14.9440   C.2       1 RES1   0.0000
    21 C21     22.7370  -7.0320  12.9670   C.2       1 RES1   0.0000
@<TRIPOS>BOND
     1     1     2    2
     2     1     3    2
     3     1     7    1
     4     1    19    1
     5     4    18    2
     6     5    10    1
     7     6    18   am
     8     7    11    1
     9     7    12    1
    10     8    20    1
    11     9    20    1
    12    10    11    1
    13    12    13    1
    14    13    20    2
    15    14    16    2
    16    14    19    1
    17    15    17    1
    18    15    19    2
    19    16    21    1
    20    17    21    2
    21    18    21    1
@<TRIPOS>SUBSTRUCTURE
     1 RES1        1 GROUP             0 ****  ****    0  
@<TRIPOS>MOLECULE
3JVW:A:DMP323
    42    46     1     0     0
SMALL
NO_CHARGES
****
Generated from the CSD

@<TRIPOS>ATOM
     1 O1      15.3050  -6.0770  12.4830   O.3       1 RES1   0.0000
     2 O2      26.1730   3.4190  19.7080   O.3       1 RES1   0.0000
     3 O3      20.8220  -3.6340  18.8230   O.2       1 RES1   0.0000
     4 O4      20.5910  -0.6840  14.0640   O.3       1 RES1   0.0000
     5 O5      20.2860   1.2650  16.1630   O.3       1 RES1   0.0000
     6 N6      20.4270  -3.1090  16.7580   N.am      1 RES1   0.0000
     7 N7      21.2460  -1.5140  18.3070   N.am      1 RES1   0.0000
     8 C8      14.9310  -5.3280  13.6410   C.3       1 RES1   0.0000
     9 C9      26.6580   2.0800  19.7360   C.3       1 RES1   0.0000
    10 C10     19.7740  -4.4060  16.6230   C.2       1 RES1   0.0000
    11 C11     21.9800  -1.3650  19.5850   C.3       1 RES1   0.0000
    12 C12     23.3760  -6.8070  14.9380   C.2       1 RES1   0.0000
    13 C13     18.0510  -0.2150  22.1870   C.2       1 RES1   0.0000
    14 C14     23.5040  -6.1690  16.1840   C.2       1 RES1   0.0000
    15 C15     22.9120  -6.0890  13.8120   C.2       1 RES1   0.0000
    16 C16     18.6350   0.9200  21.5780   C.2       1 RES1   0.0000
    17 C17     17.6660  -1.3380  21.4290   C.2       1 RES1   0.0000
    18 C18     23.1790  -4.8070  16.3020   C.2       1 RES1   0.0000
    19 C19     22.5880  -4.7200  13.9400   C.2       1 RES1   0.0000
    20 C20     18.8140   0.9610  20.1800   C.2       1 RES1   0.0000
    21 C21     17.8210  -1.2660  20.0160   C.2       1 RES1   0.0000
    22 C22     16.2470  -3.9410  15.2260   C.2       1 RES1   0.0000
    23 C23     17.2850  -5.9320  14.2580   C.2       1 RES1   0.0000
    24 C24     24.5190   1.2070  20.7740   C.2       1 RES1   0.0000
    25 C25     25.3020   0.2740  18.6330   C.2       1 RES1   0.0000
    26 C26     17.4420  -3.7120  15.9250   C.2       1 RES1   0.0000
    27 C27     18.5080  -5.6250  14.8960   C.2       1 RES1   0.0000
    28 C28     23.3930   0.3800  20.7320   C.2       1 RES1   0.0000
    29 C29     24.1820  -0.5630  18.6090   C.2       1 RES1   0.0000
    30 C30     22.3570  -2.6090  15.3370   C.3       1 RES1   0.0000
    31 C31     19.0810  -0.3210  18.0330   C.3       1 RES1   0.0000
    32 C32     20.8330  -2.7640  17.9760   C.2       1 RES1   0.0000
    33 C33     20.3550  -0.9880  15.3980   C.3       1 RES1   0.0000
    34 C34     20.9550   0.0330  16.3350   C.3       1 RES1   0.0000
    35 C35     20.8700  -2.3820  15.5550   C.3       1 RES1   0.0000
    36 C36     20.6090  -0.2780  17.7920   C.3       1 RES1   0.0000
    37 C37     16.1690  -5.0970  14.4310   C.2       1 RES1   0.0000
    38 C38     25.4390   1.1830  19.7080   C.2       1 RES1   0.0000
    39 C39     18.5550  -4.5640  15.7920   C.2       1 RES1   0.0000
    40 C40     23.2160  -0.4890  19.6280   C.2       1 RES1   0.0000
    41 C41     22.7130  -4.0780  15.1840   C.2       1 RES1   0.0000
    42 C42     18.6880  -0.2880  19.4880   C.2       1 RES1   0.0000
@<TRIPOS>BOND
     1     1     8    1
     2     2     9    1
     3     3    32    2
     4     4    33    1
     5     5    34    1
     6     6    10    1
     7     6    32   am
     8     6    35    1
     9     7    11    1
    10     7    32   am
    11     7    36    1
    12     8    37    1
    13     9    38    1
    14    10    39    1
    15    11    40    1
    16    12    14    2
    17    12    15    1
    18    13    16    2
    19    13    17    1
    20    14    18    1
    21    15    19    2
    22    16    20    1
    23    17    21    2
    24    18    41    2
    25    19    41    1
    26    20    42    2
    27    21    42    1
    28    22    26    2
    29    22    37    1
    30    23    27    1
    31    23    37    2
    32    24    28    2
    33    24    38    1
    34    25    29    1
    35    25    38    2
    36    26    39    1
    37    27    39    2
    38    28    40    1
    39    29    40    2
    40    30    35    1
    41    30    41    1
    42    31    36    1
    43    31    42    1
    44    33    34    1
    45    33    35    1
    46    34    36    1
@<TRIPOS>SUBSTRUCTURE
     1 RES1        1 GROUP             0 ****  ****    0  
@<TRIPOS>MOLECULE
1A8G:A:2Z4100
    60    63     1     0     0
SMALL
NO_CHARGES
****
Generated from the CSD

@<TRIPOS>ATOM
     1 O1      22.7740   3.6860  19.4550   O.2       1 RES1   0.0000
     2 O2      18.5540  -5.8930  12.4540   O.2       1 RES1   0.0000
     3 O3      19.8230  -4.2900  16.7200   O.2       1 RES1   0.0000
     4 O4      21.9360  -1.1200  19.2100   O.2       1 RES1   0.0000
     5 O5      16.1840  -8.5570  12.8180   O.3       1 RES1   0.0000
     6 O6      20.9920  -0.2860  14.7520   O.3       1 RES1   0.0000
     7 O7      22.2810  -8.7100  14.8970   O.3       1 RES1   0.0000
     8 O8      16.3170 -13.2230  14.2720   O.3       1 RES1   0.0000
     9 O9      22.5390   3.4640  21.7110   O.3       1 RES1   0.0000
    10 N10     19.1110  -7.4580  13.9260   N.am      1 RES1   0.0000
    11 N11     22.3010  -2.4090  15.8860   N.2       1 RES1   0.0000
    12 N12     21.2540   0.1110  17.4510   N.am      1 RES1   0.0000
    13 N13     22.5310   1.6850  20.2360   N.am      1 RES1   0.0000
    14 N14     19.3610  -4.3100  14.5680   N.am      1 RES1   0.0000
    15 C15     22.4470  -9.5000  13.6960   C.3       1 RES1   0.0000
    16 C16     15.0410 -13.4580  13.6710   C.3       1 RES1   0.0000
    17 C17     15.9010  -5.8710  14.7520   C.3       1 RES1   0.0000
    18 C18     16.5750  -3.6980  15.5450   C.3       1 RES1   0.0000
    19 C19     24.9350  -0.1530  18.0100   C.3       1 RES1   0.0000
    20 C20     25.2770   1.9530  19.1360   C.3       1 RES1   0.0000
    21 C21     24.7380  -0.0690  20.4470   C.3       1 RES1   0.0000
    22 C22     23.9230   3.3690  22.1160   C.3       1 RES1   0.0000
    23 C23     23.3790  -3.1610  15.2580   C.3       1 RES1   0.0000
    24 C24     19.1570  -8.4730  12.9110   C.3       1 RES1   0.0000
    25 C25     25.4370   4.3180  26.0910   C.2       1 RES1   0.0000
    26 C26     18.7690   1.4980  21.2620   C.2       1 RES1   0.0000
    27 C27     24.1850   3.7090  25.9440   C.2       1 RES1   0.0000
    28 C28     26.1990   4.5920  24.9500   C.2       1 RES1   0.0000
    29 C29     18.4990   0.1730  20.9460   C.2       1 RES1   0.0000
    30 C30     19.0040   2.3900  20.2040   C.2       1 RES1   0.0000
    31 C31     22.9760  -6.8120  16.1000   C.2       1 RES1   0.0000
    32 C32     22.5660  -6.5550  13.7390   C.2       1 RES1   0.0000
    33 C33     18.3510 -11.9860  14.0910   C.2       1 RES1   0.0000
    34 C34     23.6900   3.3880  24.6610   C.2       1 RES1   0.0000
    35 C35     25.7000   4.2680  23.6770   C.2       1 RES1   0.0000
    36 C36     18.4770  -0.2570  19.6160   C.2       1 RES1   0.0000
    37 C37     18.9810   1.9820  18.8610   C.2       1 RES1   0.0000
    38 C38     23.2380  -5.4520  16.1970   C.2       1 RES1   0.0000
    39 C39     22.8230  -5.1860  13.8440   C.2       1 RES1   0.0000
    40 C40     19.0420 -10.8120  13.7650   C.2       1 RES1   0.0000
    41 C41     16.2490 -10.8630  13.5570   C.2       1 RES1   0.0000
    42 C42     18.8060   0.1400  17.1500   C.3       1 RES1   0.0000
    43 C43     22.4080   2.9810  20.4020   C.2       1 RES1   0.0000
    44 C44     18.6760  -6.2690  13.6230   C.2       1 RES1   0.0000
    45 C45     19.9710  -3.7430  15.6060   C.2       1 RES1   0.0000
    46 C46     22.0170  -0.0550  18.5520   C.2       1 RES1   0.0000
    47 C47     16.9350  -9.6900  13.2340   C.2       1 RES1   0.0000
    48 C48     20.1930  -1.1630  15.5230   C.3       1 RES1   0.0000
    49 C49     22.6290  -7.3650  14.8830   C.2       1 RES1   0.0000
    50 C50     16.9530 -12.0180  13.9740   C.2       1 RES1   0.0000
    51 C51     16.8950  -4.7860  14.5460   C.3       1 RES1   0.0000
    52 C52     20.1000  -0.6750  16.9830   C.3       1 RES1   0.0000
    53 C53     20.9010  -2.5010  15.4540   C.3       1 RES1   0.0000
    54 C54     18.3440  -5.3390  14.7450   C.3       1 RES1   0.0000
    55 C55     22.9460   1.1140  18.9700   C.3       1 RES1   0.0000
    56 C56     24.4490   3.6670  23.5200   C.2       1 RES1   0.0000
    57 C57     23.1610  -4.6480  15.0810   C.2       1 RES1   0.0000
    58 C58     18.7170   0.6400  18.5780   C.2       1 RES1   0.0000
    59 C59     18.3420  -9.6700  13.3390   C.2       1 RES1   0.0000
    60 C60     24.4370   0.7030  19.1520   C.3       1 RES1   0.0000
@<TRIPOS>BOND
     1     1    43    2
     2     2    44    2
     3     3    45    2
     4     4    46    2
     5     5    47    1
     6     6    48    1
     7     7    15    1
     8     7    49    1
     9     8    16    1
    10     8    50    1
    11     9    22    1
    12     9    43    1
    13    10    24    1
    14    10    44   am
    15    11    23    1
    16    11    53    1
    17    12    46   am
    18    12    52    1
    19    13    43   am
    20    13    55    1
    21    14    45   am
    22    14    54    1
    23    17    51    1
    24    18    51    1
    25    19    60    1
    26    20    60    1
    27    21    60    1
    28    22    56    1
    29    23    57    1
    30    24    59    1
    31    25    27    2
    32    25    28    1
    33    26    29    2
    34    26    30    1
    35    27    34    1
    36    28    35    2
    37    29    36    1
    38    30    37    2
    39    31    38    2
    40    31    49    1
    41    32    39    1
    42    32    49    2
    43    33    40    2
    44    33    50    1
    45    34    56    2
    46    35    56    1
    47    36    58    2
    48    37    58    1
    49    38    57    1
    50    39    57    2
    51    40    59    1
    52    41    47    1
    53    41    50    2
    54    42    52    1
    55    42    58    1
    56    44    54    1
    57    45    53    1
    58    46    55    1
    59    47    59    2
    60    48    52    1
    61    48    53    1
    62    51    54    1
    63    55    60    1
@<TRIPOS>SUBSTRUCTURE
     1 RES1        1 GROUP             0 ****  ****    0  
@<TRIPOS>MOLECULE
3CKT:A:YDP2501
    41    43     1     0     0
SMALL
NO_CHARGES
****
Generated from the CSD

@<TRIPOS>ATOM
     1 S1      23.9790  -1.5270  19.0460   S.o2      1 RES1   0.0000
     2 S2      19.5300  -3.3220  18.4810   S.o2      1 RES1   0.0000
     3 O3      25.1830  -2.3690  18.9420   O.2       1 RES1   0.0000
     4 O4      22.9270  -2.0220  19.9150   O.2       1 RES1   0.0000
     5 O5      18.8340  -3.2130  19.7510   O.2       1 RES1   0.0000
     6 O6      20.7110  -4.1540  18.3310   O.2       1 RES1   0.0000
     7 O7      26.7710   4.4680  20.2960   O.2       1 RES1   0.0000
     8 O8      15.1170  -4.9280  13.6580   O.2       1 RES1   0.0000
     9 N9      25.6140   4.2950  22.2330   N.am      1 RES1   0.0000
    10 N10     15.4040  -7.0360  14.3910   N.am      1 RES1   0.0000
    11 N11     21.1160  -0.0920  15.0950   N.2       1 RES1   0.0000
    12 N12     23.3600  -1.2930  17.4620   N.pl3     1 RES1   0.0000
    13 N13     19.8150  -1.7880  17.8520   N.pl3     1 RES1   0.0000
    14 C14     23.5940  -5.6130  15.5010   C.3       1 RES1   0.0000
    15 C15     22.8170  -3.5840  14.1950   C.3       1 RES1   0.0000
    16 C16     19.0500   2.3380  18.5750   C.3       1 RES1   0.0000
    17 C17     19.7280   2.0520  21.0050   C.3       1 RES1   0.0000
    18 C18     21.9110   0.4110  16.2210   C.3       1 RES1   0.0000
    19 C19     20.4870  -1.3720  15.4910   C.3       1 RES1   0.0000
    20 C20     24.1800  -1.8050  16.3420   C.3       1 RES1   0.0000
    21 C21     18.9730  -0.6490  18.2380   C.3       1 RES1   0.0000
    22 C22     24.1790  -3.3300  16.3130   C.2       1 RES1   0.0000
    23 C23     19.3310   0.0440  19.5450   C.2       1 RES1   0.0000
    24 C24     24.1750   0.5270  20.8170   C.2       1 RES1   0.0000
    25 C25     25.4450   0.7940  18.7810   C.2       1 RES1   0.0000
    26 C26     18.4490  -5.3200  16.9950   C.2       1 RES1   0.0000
    27 C27     17.3720  -3.1650  16.7230   C.2       1 RES1   0.0000
    28 C28     24.6240   1.7610  21.2790   C.2       1 RES1   0.0000
    29 C29     25.8830   2.0500  19.2390   C.2       1 RES1   0.0000
    30 C30     17.5230  -5.8940  16.1220   C.2       1 RES1   0.0000
    31 C31     16.4550  -3.7450  15.8320   C.2       1 RES1   0.0000
    32 C32     25.9990   3.8560  21.0090   C.2       1 RES1   0.0000
    33 C33     15.6300  -5.6970  14.4490   C.2       1 RES1   0.0000
    34 C34     24.5850   0.0350  19.5760   C.2       1 RES1   0.0000
    35 C35     18.3510  -3.9590  17.3100   C.2       1 RES1   0.0000
    36 C36     23.5770  -4.1040  15.3940   C.2       1 RES1   0.0000
    37 C37     19.3730   1.3810  19.7020   C.2       1 RES1   0.0000
    38 C38     22.0400  -0.6640  17.3020   C.3       1 RES1   0.0000
    39 C39     20.9610  -1.7200  16.9240   C.3       1 RES1   0.0000
    40 C40     25.5060   2.5170  20.4960   C.2       1 RES1   0.0000
    41 C41     16.5570  -5.0880  15.4910   C.2       1 RES1   0.0000
@<TRIPOS>BOND
     1     1     3    2
     2     1     4    2
     3     1    12    1
     4     1    34    1
     5     2     5    2
     6     2     6    2
     7     2    13    1
     8     2    35    1
     9     7    32    2
    10     8    33    2
    11     9    32   am
    12    10    33   am
    13    11    18    1
    14    11    19    1
    15    12    20    1
    16    12    38    1
    17    13    21    1
    18    13    39    1
    19    14    36    1
    20    15    36    1
    21    16    37    1
    22    17    37    1
    23    18    38    1
    24    19    39    1
    25    20    22    1
    26    21    23    1
    27    22    36    2
    28    23    37    2
    29    24    28    2
    30    24    34    1
    31    25    29    1
    32    25    34    2
    33    26    30    2
    34    26    35    1
    35    27    31    1
    36    27    35    2
    37    28    40    1
    38    29    40    2
    39    30    41    1
    40    31    41    2
    41    32    40    1
    42    33    41    1
    43    38    39    1
@<TRIPOS>SUBSTRUCTURE
     1 RES1        1 GROUP             0 ****  ****    0  
@<TRIPOS>MOLECULE
2BB9:A:AKC401
    46    51     1     0     0
SMALL
NO_CHARGES
****
Generated from the CSD

@<TRIPOS>ATOM
     1 O1      18.8250  -4.6220  16.3510   O.2       1 RES1   0.0000
     2 O2      22.9620   4.9860  19.8850   O.2       1 RES1   0.0000
     3 O3      20.7700  -0.8800  14.4420   O.3       1 RES1   0.0000
     4 O4      20.5200  -1.5900  19.2250   O.2       1 RES1   0.0000
     5 O5      15.3570  -5.5260  13.1340   O.3       1 RES1   0.0000
     6 O6      18.0610  -4.9230  14.2920   O.3       1 RES1   0.0000
     7 O7      22.3310   2.9040  19.8080   O.3       1 RES1   0.0000
     8 N8      20.4350   0.9140  16.8040   N.2       1 RES1   0.0000
     9 N9      19.9450  -3.7530  14.5650   N.am      1 RES1   0.0000
    10 N10     23.8620   3.4620  21.2840   N.am      1 RES1   0.0000
    11 C11     14.8220  -4.8040  14.2690   C.3       1 RES1   0.0000
    12 C12     16.2730  -6.4960  13.6510   C.3       1 RES1   0.0000
    13 C13     22.9720  -7.7170  14.3700   C.2       1 RES1   0.0000
    14 C14     18.9190   3.0480  21.2580   C.2       1 RES1   0.0000
    15 C15     23.0840  -7.0900  15.6750   C.2       1 RES1   0.0000
    16 C16     22.7710  -6.9750  13.1310   C.2       1 RES1   0.0000
    17 C17     18.8250   3.5750  19.9160   C.2       1 RES1   0.0000
    18 C18     18.7750   1.6290  21.5660   C.2       1 RES1   0.0000
    19 C19     26.9750   1.1350  18.8950   C.2       1 RES1   0.0000
    20 C20     26.2890   0.2290  18.0020   C.2       1 RES1   0.0000
    21 C21     21.6220   1.1640  17.4240   C.2       1 RES1   0.0000
    22 C22     16.0120  -4.2230  15.0200   C.3       1 RES1   0.0000
    23 C23     22.9520  -5.6450  15.7690   C.2       1 RES1   0.0000
    24 C24     22.6280  -5.5240  13.2230   C.2       1 RES1   0.0000
    25 C25     18.6170   2.6400  18.8490   C.2       1 RES1   0.0000
    26 C26     18.5460   0.6720  20.4970   C.2       1 RES1   0.0000
    27 C27     26.2970   1.7730  20.0170   C.2       1 RES1   0.0000
    28 C28     24.8890  -0.0450  18.1520   C.2       1 RES1   0.0000
    29 C29     22.3870  -3.3890  14.6550   C.3       1 RES1   0.0000
    30 C30     19.5600  -1.3630  16.3660   C.3       1 RES1   0.0000
    31 C31     18.3900   0.2560  17.9430   C.3       1 RES1   0.0000
    32 C32     18.9490  -4.4470  15.1590   C.2       1 RES1   0.0000
    33 C33     23.0390   3.8850  20.3120   C.2       1 RES1   0.0000
    34 C34     16.9730  -5.7720  14.7970   C.3       1 RES1   0.0000
    35 C35     20.8440  -1.6020  15.5710   C.3       1 RES1   0.0000
    36 C36     20.6850  -0.6580  18.4890   C.2       1 RES1   0.0000
    37 C37     22.6850  -4.8860  14.5460   C.2       1 RES1   0.0000
    38 C38     18.5070   1.2080  19.1280   C.2       1 RES1   0.0000
    39 C39     22.5400   1.6940  20.5670   C.3       1 RES1   0.0000
    40 C40     21.0480  -3.1310  15.3580   C.3       1 RES1   0.0000
    41 C41     23.9410   2.1010  21.0840   C.3       1 RES1   0.0000
    42 C42     21.7910   0.3090  18.5810   C.2       1 RES1   0.0000
    43 C43     24.8900   1.4740  20.1450   C.2       1 RES1   0.0000
    44 C44     24.2060   0.6280  19.2410   C.2       1 RES1   0.0000
    45 C45     22.8240   0.4290  19.7090   C.3       1 RES1   0.0000
    46 C46     19.7180  -0.2190  17.3580   C.3       1 RES1   0.0000
@<TRIPOS>BOND
     1     1    32    2
     2     2    33    2
     3     3    35    1
     4     4    36    2
     5     5    11    1
     6     5    12    1
     7     6    32    1
     8     6    34    1
     9     7    33    1
    10     7    39    1
    11     8    21    1
    12     8    46    1
    13     9    32   am
    14     9    40    1
    15    10    33   am
    16    10    41    1
    17    11    22    1
    18    12    34    1
    19    13    15    2
    20    13    16    1
    21    14    17    2
    22    14    18    1
    23    15    23    1
    24    16    24    2
    25    17    25    1
    26    18    26    2
    27    19    20    2
    28    19    27    1
    29    20    28    1
    30    21    42    2
    31    23    37    2
    32    24    37    1
    33    25    38    2
    34    26    38    1
    35    27    43    2
    36    28    44    2
    37    29    37    1
    38    29    40    1
    39    30    35    1
    40    30    46    1
    41    31    38    1
    42    31    46    1
    43    35    40    1
    44    36    42    1
    45    36    46    1
    46    39    41    1
    47    39    45    1
    48    41    43    1
    49    42    45    1
    50    43    44    1
    51    44    45    1
@<TRIPOS>SUBSTRUCTURE
     1 RES1        1 GROUP             0 ****  ****    0  
@<TRIPOS>MOLECULE
3QBF:A:JHG100
    39    42     1     0     0
SMALL
NO_CHARGES
****
Generated from the CSD

@<TRIPOS>ATOM
     1 S1      19.1280  -2.7250  18.1970   S.o2      1 RES1   0.0000
     2 F2      25.8150   3.7220  20.0290   F         1 RES1   0.0000
     3 F3      27.2350   2.4070  20.9490   F         1 RES1   0.0000
     4 F4      25.3720   2.8290  21.9560   F         1 RES1   0.0000
     5 O5      18.2440  -2.3900  19.2770   O.2       1 RES1   0.0000
     6 O6      20.2880  -3.4640  18.6170   O.2       1 RES1   0.0000
     7 O7      15.1400  -4.8350  13.3820   O.2       1 RES1   0.0000
     8 N8      16.2280  -6.7540  13.6350   N.am      1 RES1   0.0000
     9 N9      20.7710  -0.2130  14.5760   N.2       1 RES1   0.0000
    10 N10     23.0210  -0.9180  16.5800   N.2       1 RES1   0.0000
    11 N11     19.5840  -1.4370  17.5100   N.pl3     1 RES1   0.0000
    12 C12     21.4180   0.6070  15.5750   C.3       1 RES1   0.0000
    13 C13     20.1660  -1.4130  15.1420   C.3       1 RES1   0.0000
    14 C14     23.5950  -1.6050  17.7280   C.3       1 RES1   0.0000
    15 C15     18.8560  -0.1820  17.6630   C.3       1 RES1   0.0000
    16 C16     19.0050   4.0390  22.4620   C.2       1 RES1   0.0000
    17 C17     19.4300   0.5540  18.8650   C.3       1 RES1   0.0000
    18 C18     19.3720   2.6980  22.4150   C.2       1 RES1   0.0000
    19 C19     18.7120   4.7270  21.2910   C.2       1 RES1   0.0000
    20 C20     16.9860  -3.1320  16.7560   C.2       1 RES1   0.0000
    21 C21     18.8680  -4.5390  16.3040   C.2       1 RES1   0.0000
    22 C22     19.1910   2.0420  18.6800   C.3       1 RES1   0.0000
    23 C23     19.4380   2.0400  21.1890   C.2       1 RES1   0.0000
    24 C24     18.7790   4.0750  20.0670   C.2       1 RES1   0.0000
    25 C25     25.2670   0.1760  18.0720   C.2       1 RES1   0.0000
    26 C26     23.6330  -0.1850  19.8160   C.2       1 RES1   0.0000
    27 C27     16.2530  -3.7750  15.7570   C.2       1 RES1   0.0000
    28 C28     18.1410  -5.1820  15.2960   C.2       1 RES1   0.0000
    29 C29     25.8320   1.2000  18.8030   C.2       1 RES1   0.0000
    30 C30     24.2020   0.8490  20.5510   C.2       1 RES1   0.0000
    31 C31     18.2970  -3.5060  17.0410   C.2       1 RES1   0.0000
    32 C32     16.0110  -5.4800  13.9480   C.2       1 RES1   0.0000
    33 C33     21.6940  -0.3480  16.7210   C.3       1 RES1   0.0000
    34 C34     20.7190  -1.5050  16.5730   C.3       1 RES1   0.0000
    35 C35     24.1770  -0.5100  18.5780   C.2       1 RES1   0.0000
    36 C36     19.1340   2.7320  20.0200   C.2       1 RES1   0.0000
    37 C37     16.8260  -4.8060  15.0250   C.2       1 RES1   0.0000
    38 C38     25.2990   1.5330  20.0360   C.2       1 RES1   0.0000
    39 C39     25.9470   2.6490  20.7830   C.3       1 RES1   0.0000
@<TRIPOS>BOND
     1     1     5    2
     2     1     6    2
     3     1    11    1
     4     1    31    1
     5     2    39    1
     6     3    39    1
     7     4    39    1
     8     7    32    2
     9     8    32   am
    10     9    12    1
    11     9    13    1
    12    10    14    1
    13    10    33    1
    14    11    15    1
    15    11    34    1
    16    12    33    1
    17    13    34    1
    18    14    35    1
    19    15    17    1
    20    16    18    2
    21    16    19    1
    22    17    22    1
    23    18    23    1
    24    19    24    2
    25    20    27    2
    26    20    31    1
    27    21    28    1
    28    21    31    2
    29    22    36    1
    30    23    36    2
    31    24    36    1
    32    25    29    2
    33    25    35    1
    34    26    30    1
    35    26    35    2
    36    27    37    1
    37    28    37    2
    38    29    38    1
    39    30    38    2
    40    32    37    1
    41    33    34    1
    42    38    39    1
@<TRIPOS>SUBSTRUCTURE
     1 RES1        1 GROUP             0 ****  ****    0  
@<TRIPOS>MOLECULE
3TOF:A:076100
    38    41     1     0     0
SMALL
NO_CHARGES
****
Generated from the CSD

@<TRIPOS>ATOM
     1 O1      22.8840   3.9430  19.3330   O.2       1 RES1   0.0000
     2 O2      21.8000  -0.9180  19.1830   O.2       1 RES1   0.0000
     3 O3      20.7760   0.3430  14.6720   O.3       1 RES1   0.0000
     4 O4      21.4600   2.9380  22.3790   O.3       1 RES1   0.0000
     5 O5      21.2850  -3.0250  16.0940   O.3       1 RES1   0.0000
     6 N6      22.6210   1.8700  20.2900   N.am      1 RES1   0.0000
     7 N7      21.3980   0.5950  17.5390   N.am      1 RES1   0.0000
     8 C8      24.9680  -0.4010  18.1900   C.3       1 RES1   0.0000
     9 C9      25.6430   1.5400  19.7750   C.3       1 RES1   0.0000
    10 C10     21.8100   3.9940  21.3970   C.3       1 RES1   0.0000
    11 C11     18.4230   3.3960  25.1990   C.2       1 RES1   0.0000
    12 C12     22.7800  -7.6250  14.7620   C.2       1 RES1   0.0000
    13 C13     18.0660   1.6650  21.1250   C.2       1 RES1   0.0000
    14 C14     18.7070   4.4630  24.3270   C.2       1 RES1   0.0000
    15 C15     19.1420   2.1970  25.1030   C.2       1 RES1   0.0000
    16 C16     22.6020  -7.0610  13.4980   C.2       1 RES1   0.0000
    17 C17     22.9700  -6.8090  15.8800   C.2       1 RES1   0.0000
    18 C18     17.7680   0.3890  20.6530   C.2       1 RES1   0.0000
    19 C19     18.6320   2.6250  20.2680   C.2       1 RES1   0.0000
    20 C20     19.7400   4.3340  23.3620   C.2       1 RES1   0.0000
    21 C21     20.1570   2.0610  24.1630   C.2       1 RES1   0.0000
    22 C22     22.6380  -5.6660  13.3860   C.2       1 RES1   0.0000
    23 C23     23.0420  -5.4230  15.7880   C.2       1 RES1   0.0000
    24 C24     18.0600   0.0670  19.3350   C.2       1 RES1   0.0000
    25 C25     18.9000   2.3070  18.9100   C.2       1 RES1   0.0000
    26 C26     22.9010  -3.3550  14.3740   C.3       1 RES1   0.0000
    27 C27     18.9800   0.7710  17.0130   C.3       1 RES1   0.0000
    28 C28     22.4880   3.2310  20.2590   C.2       1 RES1   0.0000
    29 C29     22.0650   0.1660  18.6240   C.2       1 RES1   0.0000
    30 C30     20.4390  -0.7740  15.5540   C.3       1 RES1   0.0000
    31 C31     20.4540   3.1250  23.2950   C.2       1 RES1   0.0000
    32 C32     21.5990  -2.8770  14.6890   C.3       1 RES1   0.0000
    33 C33     21.6230  -1.6910  15.5990   C.3       1 RES1   0.0000
    34 C34     24.5660   0.4660  19.4500   C.3       1 RES1   0.0000
    35 C35     20.2050  -0.2000  16.9710   C.3       1 RES1   0.0000
    36 C36     23.2100   1.1390  19.1310   C.3       1 RES1   0.0000
    37 C37     22.8470  -4.8660  14.5180   C.2       1 RES1   0.0000
    38 C38     18.6240   1.0390  18.4640   C.2       1 RES1   0.0000
@<TRIPOS>BOND
     1     1    28    2
     2     2    29    2
     3     3    30    1
     4     4    10    1
     5     4    31    1
     6     5    32    1
     7     5    33    1
     8     6    28   am
     9     6    36    1
    10     7    29   am
    11     7    35    1
    12     8    34    1
    13     9    34    1
    14    10    28    1
    15    11    14    2
    16    11    15    1
    17    12    16    2
    18    12    17    1
    19    13    18    2
    20    13    19    1
    21    14    20    1
    22    15    21    2
    23    16    22    1
    24    17    23    2
    25    18    24    1
    26    19    25    2
    27    20    31    2
    28    21    31    1
    29    22    37    2
    30    23    37    1
    31    24    38    2
    32    25    38    1
    33    26    32    1
    34    26    37    1
    35    27    35    1
    36    27    38    1
    37    29    36    1
    38    30    33    1
    39    30    35    1
    40    32    33    1
    41    34    36    1
@<TRIPOS>SUBSTRUCTURE
     1 RES1        1 GROUP             0 ****  ****    0  
@<TRIPOS>MOLECULE
2PWR:B:G4G501
    45    49     1     0     0
SMALL
NO_CHARGES
****
Generated from the CSD

@<TRIPOS>ATOM
     1 S1      23.7910  -1.8010  18.4100   S.o2      1 RES1   0.0000
     2 S2      19.0260  -3.1770  18.1610   S.o2      1 RES1   0.0000
     3 O3      22.6810  -2.3440  19.2210   O.2       1 RES1   0.0000
     4 O4      24.9260  -2.7090  18.1290   O.2       1 RES1   0.0000
     5 O5      20.1300  -4.1040  18.3750   O.2       1 RES1   0.0000
     6 O6      18.0870  -2.7660  19.1680   O.2       1 RES1   0.0000
     7 O7      26.6720   3.9810  20.4000   O.2       1 RES1   0.0000
     8 O8      15.1800  -4.7030  12.9240   O.2       1 RES1   0.0000
     9 N9      25.3150   3.7000  22.1390   N.am      1 RES1   0.0000
    10 N10     16.0690  -6.7580  13.1240   N.am      1 RES1   0.0000
    11 N11     21.0490  -0.4250  14.6180   N.2       1 RES1   0.0000
    12 N12     23.1390  -1.4900  16.8820   N.pl3     1 RES1   0.0000
    13 N13     19.5560  -1.7600  17.3850   N.pl3     1 RES1   0.0000
    14 C14     21.7290   0.2610  15.7600   C.3       1 RES1   0.0000
    15 C15     20.3520  -1.6250  15.0600   C.3       1 RES1   0.0000
    16 C16     22.3830  -5.9300  14.4690   C.2       1 RES1   0.0000
    17 C17     19.9010   2.4680  20.2810   C.2       1 RES1   0.0000
    18 C18     22.7520  -5.6560  15.8100   C.2       1 RES1   0.0000
    19 C19     22.4520  -4.8820  13.4750   C.2       1 RES1   0.0000
    20 C20     20.2520   1.1240  20.5320   C.2       1 RES1   0.0000
    21 C21     19.1890   2.8440  19.1140   C.2       1 RES1   0.0000
    22 C22     23.9380  -2.0350  15.7400   C.3       1 RES1   0.0000
    23 C23     18.7050  -0.5600  17.5240   C.3       1 RES1   0.0000
    24 C24     23.3070  -4.4350  16.3070   C.2       1 RES1   0.0000
    25 C25     22.9430  -3.6280  13.9830   C.2       1 RES1   0.0000
    26 C26     19.8700   0.0900  19.6740   C.2       1 RES1   0.0000
    27 C27     18.8730   1.8150  18.2060   C.2       1 RES1   0.0000
    28 C28     25.4620   0.4270  18.4880   C.2       1 RES1   0.0000
    29 C29     23.7650   0.1900  20.2480   C.2       1 RES1   0.0000
    30 C30     16.7660  -3.3810  16.5330   C.2       1 RES1   0.0000
    31 C31     18.6640  -4.8810  16.0770   C.2       1 RES1   0.0000
    32 C32     25.9340   1.6030  19.1250   C.2       1 RES1   0.0000
    33 C33     24.2320   1.3450  20.9150   C.2       1 RES1   0.0000
    34 C34     16.0690  -3.9040  15.4150   C.2       1 RES1   0.0000
    35 C35     17.9620  -5.4400  14.9780   C.2       1 RES1   0.0000
    36 C36     25.8020   3.3110  20.9440   C.2       1 RES1   0.0000
    37 C37     15.9080  -5.4960  13.5030   C.2       1 RES1   0.0000
    38 C38     24.4070  -0.3230  19.0740   C.2       1 RES1   0.0000
    39 C39     18.0640  -3.8350  16.8200   C.2       1 RES1   0.0000
    40 C40     23.3920  -3.4000  15.3080   C.2       1 RES1   0.0000
    41 C41     19.1610   0.4710  18.5170   C.2       1 RES1   0.0000
    42 C42     21.8320  -0.7680  16.8920   C.3       1 RES1   0.0000
    43 C43     20.7730  -1.9010  16.5450   C.3       1 RES1   0.0000
    44 C44     25.2900   2.0840  20.3210   C.2       1 RES1   0.0000
    45 C45     16.6670  -4.9520  14.6950   C.2       1 RES1   0.0000
@<TRIPOS>BOND
     1     1     3    2
     2     1     4    2
     3     1    12    1
     4     1    38    1
     5     2     5    2
     6     2     6    2
     7     2    13    1
     8     2    39    1
     9     7    36    2
    10     8    37    2
    11     9    36   am
    12    10    37   am
    13    11    14    1
    14    11    15    1
    15    12    22    1
    16    12    42    1
    17    13    23    1
    18    13    43    1
    19    14    42    1
    20    15    43    1
    21    16    18    2
    22    16    19    1
    23    17    20    2
    24    17    21    1
    25    18    24    1
    26    19    25    2
    27    20    26    1
    28    21    27    2
    29    22    40    1
    30    23    41    1
    31    24    40    2
    32    25    40    1
    33    26    41    2
    34    27    41    1
    35    28    32    2
    36    28    38    1
    37    29    33    1
    38    29    38    2
    39    30    34    2
    40    30    39    1
    41    31    35    1
    42    31    39    2
    43    32    44    1
    44    33    44    2
    45    34    45    1
    46    35    45    2
    47    36    44    1
    48    37    45    1
    49    42    43    1
@<TRIPOS>SUBSTRUCTURE
     1 RES1        1 GROUP             0 ****  ****    0  
@<TRIPOS>MOLECULE
1ZTZ:P:MOL1
    19    18     1     0     0
SMALL
NO_CHARGES
****
Generated from the CSD

@<TRIPOS>ATOM
     1 N1      18.7010   0.7280  14.7540   N.3       1 RES1   0.0000
     2 C2      20.1470   0.4280  14.5880   C.3       1 RES1   0.0000
     3 C3      20.2990  -0.9810  14.0280   C.2       1 RES1   0.0000
     4 O4      20.8430  -1.1990  12.9480   O.2       1 RES1   0.0000
     5 C5      20.8860   0.5860  15.9170   C.3       1 RES1   0.0000
     6 N6      19.8420  -1.9610  14.7980   N.am      1 RES1   0.0000
     7 C7      19.6560  -3.3030  14.2660   C.3       1 RES1   0.0000
     8 C8      18.2080  -3.2480  13.8340   C.2       1 RES1   0.0000
     9 O9      17.9240  -3.1390  12.6460   O.2       1 RES1   0.0000
    10 N10     17.3200  -3.3200  14.8220   N.am      1 RES1   0.0000
    11 C11     15.9520  -2.8100  14.7690   C.3       1 RES1   0.0000
    12 C12     15.0160  -3.4900  13.7740   C.2       1 RES1   0.0000
    13 O13     13.8440  -3.1050  13.6710   O.2       1 RES1   0.0000
    14 C14     15.9490  -1.2940  14.5960   C.3       1 RES1   0.0000
    15 N15     15.5500  -4.5020  13.0920   N.am      1 RES1   0.0000
    16 C16     14.8780  -5.2100  12.0040   C.3       1 RES1   0.0000
    17 C17     15.8170  -6.0270  11.1120   C.2       1 RES1   0.0000
    18 O18     15.6140  -7.2320  10.9160   O.2       1 RES1   0.0000
    19 C19     14.0650  -4.2420  11.1730   C.3       1 RES1   0.0000
@<TRIPOS>BOND
     1     1     2    1
     2     2     3    1
     3     2     5    1
     4     3     4    2
     5     3     6   am
     6     6     7    1
     7     7     8    1
     8     8     9    2
     9     8    10   am
    10    10    11    1
    11    11    12    1
    12    11    14    1
    13    12    13    2
    14    12    15   am
    15    15    16    1
    16    16    17    1
    17    16    19    1
    18    17    18    2
@<TRIPOS>SUBSTRUCTURE
     1 RES1        1 GROUP             0 ****  ****    0  
@<TRIPOS>MOLECULE
1UPJ:A:U01201
    23    25     1     0     0
SMALL
NO_CHARGES
****
Generated from the CSD

@<TRIPOS>ATOM
     1 Br1     25.8040   1.6850  19.9030   Br        1 RES1   0.0000
     2 O2      21.2310  -2.8180  18.8350   O.2       1 RES1   0.0000
     3 O3      20.9160  -1.2950  14.4480   O.3       1 RES1   0.0000
     4 O4      21.8720  -4.2560  17.1970   O.3       1 RES1   0.0000
     5 C5      18.8700   0.5700  18.6110   C.3       1 RES1   0.0000
     6 C6      18.2990  -1.7450  17.7230   C.3       1 RES1   0.0000
     7 C7      22.5250  -6.0700  14.0800   C.2       1 RES1   0.0000
     8 C8      22.2000  -5.0820  13.1570   C.2       1 RES1   0.0000
     9 C9      24.2210   0.0800  17.9940   C.2       1 RES1   0.0000
    10 C10     22.8770   1.2890  19.5800   C.2       1 RES1   0.0000
    11 C11     22.4270  -5.7780  15.4330   C.2       1 RES1   0.0000
    12 C12     21.7510  -3.8310  13.5700   C.2       1 RES1   0.0000
    13 C13     23.0650  -0.4360  17.4170   C.2       1 RES1   0.0000
    14 C14     21.7170   0.7730  19.0050   C.2       1 RES1   0.0000
    15 C15     21.4180  -3.0160  17.6350   C.2       1 RES1   0.0000
    16 C16     24.1320   0.9390  19.0860   C.2       1 RES1   0.0000
    17 C17     21.1700  -2.2930  15.3530   C.2       1 RES1   0.0000
    18 C18     19.4040  -0.8180  18.2380   C.3       1 RES1   0.0000
    19 C19     21.9700  -4.5290  15.8390   C.2       1 RES1   0.0000
    20 C20     21.8150  -0.0860  17.9160   C.2       1 RES1   0.0000
    21 C21     21.6210  -3.5400  14.9240   C.2       1 RES1   0.0000
    22 C22     21.0620  -2.0360  16.7180   C.2       1 RES1   0.0000
    23 C23     20.5750  -0.6850  17.2500   C.3       1 RES1   0.0000
@<TRIPOS>BOND
     1     1    16    1
     2     2    15    2
     3     3    17    1
     4     4    15    1
     5     4    19    1
     6     5    18    1
     7     6    18    1
     8     7     8    2
     9     7    11    1
    10     8    12    1
    11     9    13    2
    12     9    16    1
    13    10    14    1
    14    10    16    2
    15    11    19    2
    16    12    21    2
    17    13    20    1
    18    14    20    2
    19    15    22    1
    20    17    21    1
    21    17    22    2
    22    18    23    1
    23    19    21    1
    24    20    23    1
    25    22    23    1
@<TRIPOS>SUBSTRUCTURE
     1 RES1        1 GROUP             0 ****  ****    0  
@<TRIPOS>MOLECULE
3DJK:B:G55401
    38    40     1     0     0
SMALL
NO_CHARGES
****
Generated from the CSD

@<TRIPOS>ATOM
     1 S1      22.8270  -1.1410  18.5960   S.o2      1 RES1   0.0000
     2 O2      23.5820  -2.0080  17.7100   O.2       1 RES1   0.0000
     3 O3      22.1530  -1.7070  19.7090   O.2       1 RES1   0.0000
     4 O4      19.0190  -3.9740  16.6460   O.2       1 RES1   0.0000
     5 O5      21.0170  -0.5700  14.0580   O.3       1 RES1   0.0000
     6 O6      26.3780   3.1990  20.3510   O.3       1 RES1   0.0000
     7 O7      16.9020  -8.0750  13.9620   O.3       1 RES1   0.0000
     8 O8      16.3580  -5.9610  13.0760   O.3       1 RES1   0.0000
     9 O9      18.1890  -4.4650  14.6450   O.3       1 RES1   0.0000
    10 N10     20.0510  -3.2540  14.8260   N.am      1 RES1   0.0000
    11 N11     21.6750  -0.3860  17.7140   N.pl3     1 RES1   0.0000
    12 C12     26.1710   3.8240  21.6120   C.3       1 RES1   0.0000
    13 C13     18.7860  -0.6830  18.6870   C.3       1 RES1   0.0000
    14 C14     18.8440   1.8270  18.8800   C.3       1 RES1   0.0000
    15 C15     16.3640  -7.3490  12.8980   C.3       1 RES1   0.0000
    16 C16     18.1640  -7.5370  14.3780   C.3       1 RES1   0.0000
    17 C17     16.0460  -5.4280  14.3390   C.3       1 RES1   0.0000
    18 C18     21.8800  -0.2000  16.2870   C.3       1 RES1   0.0000
    19 C19     20.9090   0.6300  18.3920   C.3       1 RES1   0.0000
    20 C20     22.8090  -7.2810  15.3310   C.2       1 RES1   0.0000
    21 C21     22.3550  -6.7370  14.1300   C.2       1 RES1   0.0000
    22 C22     23.2420  -6.4090  16.3270   C.2       1 RES1   0.0000
    23 C23     17.9070  -6.6330  15.5640   C.3       1 RES1   0.0000
    24 C24     23.7700   0.6080  20.4770   C.2       1 RES1   0.0000
    25 C25     25.0020   0.5140  18.3820   C.2       1 RES1   0.0000
    26 C26     24.5770   1.6370  20.8810   C.2       1 RES1   0.0000
    27 C27     25.8080   1.5320  18.8260   C.2       1 RES1   0.0000
    28 C28     22.3210  -5.3800  13.9140   C.2       1 RES1   0.0000
    29 C29     23.1500  -5.0170  16.1310   C.2       1 RES1   0.0000
    30 C30     22.4340  -3.0130  14.7700   C.3       1 RES1   0.0000
    31 C31     19.1050  -3.9080  15.4730   C.2       1 RES1   0.0000
    32 C32     23.9760   0.0830  19.1770   C.2       1 RES1   0.0000
    33 C33     20.9260  -1.0240  15.4360   C.3       1 RES1   0.0000
    34 C34     25.5410   2.1950  20.0460   C.2       1 RES1   0.0000
    35 C35     17.2200  -5.3070  15.2810   C.3       1 RES1   0.0000
    36 C36     21.1690  -2.5580  15.4810   C.3       1 RES1   0.0000
    37 C37     19.3730   0.6020  18.1410   C.3       1 RES1   0.0000
    38 C38     22.6610  -4.4900  14.9330   C.2       1 RES1   0.0000
@<TRIPOS>BOND
     1     1     2    2
     2     1     3    2
     3     1    11    1
     4     1    32    1
     5     4    31    2
     6     5    33    1
     7     6    12    1
     8     6    34    1
     9     7    15    1
    10     7    16    1
    11     8    15    1
    12     8    17    1
    13     9    31    1
    14     9    35    1
    15    10    31   am
    16    10    36    1
    17    11    18    1
    18    11    19    1
    19    13    37    1
    20    14    37    1
    21    16    23    1
    22    17    35    1
    23    18    33    1
    24    19    37    1
    25    20    21    2
    26    20    22    1
    27    21    28    1
    28    22    29    2
    29    23    35    1
    30    24    26    2
    31    24    32    1
    32    25    27    1
    33    25    32    2
    34    26    34    1
    35    27    34    2
    36    28    38    2
    37    29    38    1
    38    30    36    1
    39    30    38    1
    40    33    36    1
@<TRIPOS>SUBSTRUCTURE
     1 RES1        1 GROUP             0 ****  ****    0  
@<TRIPOS>MOLECULE
1AAQ:B:PSI100
    41    41     1     0     0
SMALL
NO_CHARGES
****
Generated from the CSD

@<TRIPOS>ATOM
     1 O1      18.0700 -10.6500  15.0450   O.3       1 RES1   0.0000
     2 O2      20.4750  -5.1360  15.9690   O.2       1 RES1   0.0000
     3 O3      24.1840   3.4620  19.5900   O.2       1 RES1   0.0000
     4 O4      22.6020  -1.1300  19.1770   O.2       1 RES1   0.0000
     5 O5      19.1240  -6.6110  11.9720   O.2       1 RES1   0.0000
     6 O6      20.7130  -0.5360  14.6460   O.3       1 RES1   0.0000
     7 O7      17.3910 -10.7580  12.7410   O.3       1 RES1   0.0000
     8 N8      24.4600   4.0810  22.2730   N.3       1 RES1   0.0000
     9 N9      23.7610   1.3010  20.0900   N.am      1 RES1   0.0000
    10 N10     19.4330  -4.6480  14.0370   N.am      1 RES1   0.0000
    11 N11     21.8230   0.2290  17.5430   N.am      1 RES1   0.0000
    12 N12     19.0840  -8.0830  13.6880   N.am      1 RES1   0.0000
    13 C13     16.9260 -12.1190  12.7580   C.3       1 RES1   0.0000
    14 C14     22.1860   3.3360  22.0610   C.3       1 RES1   0.0000
    15 C15     25.2460   0.0280  18.5890   C.3       1 RES1   0.0000
    16 C16     21.5200 -10.9780  12.8120   C.3       1 RES1   0.0000
    17 C17     21.8980  -8.5390  12.8760   C.3       1 RES1   0.0000
    18 C18     16.0850  -6.5840  14.3810   C.3       1 RES1   0.0000
    19 C19     16.7060  -4.2950  15.1270   C.3       1 RES1   0.0000
    20 C20     18.5850   2.0100  21.3470   C.2       1 RES1   0.0000
    21 C21     19.2550   2.7980  20.3960   C.2       1 RES1   0.0000
    22 C22     18.1940   0.7040  21.0210   C.2       1 RES1   0.0000
    23 C23     21.4610  -3.3660  14.7370   C.3       1 RES1   0.0000
    24 C24     21.5910  -2.3840  15.9220   C.3       1 RES1   0.0000
    25 C25     19.5130   2.2930  19.1120   C.2       1 RES1   0.0000
    26 C26     18.4430   0.2020  19.7390   C.2       1 RES1   0.0000
    27 C27     19.3410   0.4110  17.3930   C.3       1 RES1   0.0000
    28 C28     18.4780 -10.5190  13.6360   C.3       1 RES1   0.0000
    29 C29     20.3910  -4.4420  14.9630   C.2       1 RES1   0.0000
    30 C30     23.9180   2.5950  20.4110   C.2       1 RES1   0.0000
    31 C31     22.7190  -0.1330  18.4780   C.2       1 RES1   0.0000
    32 C32     18.9430  -6.8710  13.1540   C.2       1 RES1   0.0000
    33 C33     20.5150  -1.2840  15.9090   C.3       1 RES1   0.0000
    34 C34     23.6510   2.9550  21.8740   C.3       1 RES1   0.0000
    35 C35     23.9180   0.7920  18.7170   C.3       1 RES1   0.0000
    36 C36     20.5590  -0.5230  17.2930   C.3       1 RES1   0.0000
    37 C37     19.4720  -9.3880  13.1210   C.3       1 RES1   0.0000
    38 C38     18.5160  -5.8050  14.1870   C.3       1 RES1   0.0000
    39 C39     20.9850  -9.6540  13.4350   C.3       1 RES1   0.0000
    40 C40     17.0290  -5.3970  14.0960   C.3       1 RES1   0.0000
    41 C41     19.1160   0.9870  18.7820   C.2       1 RES1   0.0000
@<TRIPOS>BOND
     1     1    28    1
     2     2    29    2
     3     3    30    2
     4     4    31    2
     5     5    32    2
     6     6    33    1
     7     7    13    1
     8     7    28    1
     9     8    34    1
    10     9    30   am
    11     9    35    1
    12    10    29   am
    13    10    38    1
    14    11    31   am
    15    11    36    1
    16    12    32   am
    17    12    37    1
    18    14    34    1
    19    15    35    1
    20    16    39    1
    21    17    39    1
    22    18    40    1
    23    19    40    1
    24    20    21    2
    25    20    22    1
    26    21    25    1
    27    22    26    2
    28    23    24    1
    29    23    29    1
    30    24    33    1
    31    25    41    2
    32    26    41    1
    33    27    36    1
    34    27    41    1
    35    28    37    1
    36    30    34    1
    37    31    35    1
    38    32    38    1
    39    33    36    1
    40    37    39    1
    41    38    40    1
@<TRIPOS>SUBSTRUCTURE
     1 RES1        1 GROUP             0 ****  ****    0  
@<TRIPOS>MOLECULE
6VCE:B:G6R201
    48    54     1     0     0
SMALL
NO_CHARGES
****
Generated from the CSD

@<TRIPOS>ATOM
     1 S1      17.3030  -8.4450  13.4320   S.3       1 RES1   0.0000
     2 S2      18.9450  -4.0300  16.2910   S.o2      1 RES1   0.0000
     3 F3      18.2560  -1.1850  21.6180   F         1 RES1   0.0000
     4 F4      19.2410   3.3090  20.7420   F         1 RES1   0.0000
     5 O5      19.5510  -4.9720  17.1710   O.2       1 RES1   0.0000
     6 O6      18.2350  -2.9510  16.9500   O.2       1 RES1   0.0000
     7 O7      22.4590  -1.4750  18.7660   O.2       1 RES1   0.0000
     8 O8      20.7270   0.2020  14.5990   O.3       1 RES1   0.0000
     9 O9      25.8600   3.4640  20.1030   O.3       1 RES1   0.0000
    10 O10     23.6090   3.7880  19.5180   O.3       1 RES1   0.0000
    11 N11     15.3250  -9.0300  11.6130   N.2       1 RES1   0.0000
    12 N12     15.4720  -6.8780  12.5590   N.2       1 RES1   0.0000
    13 N13     21.6670   0.1220  17.3360   N.am      1 RES1   0.0000
    14 N14     20.0910  -3.3490  15.3790   N.pl3     1 RES1   0.0000
    15 C15     23.0660  -3.9190  15.8790   C.3       1 RES1   0.0000
    16 C16     22.9750  -4.9160  13.5740   C.3       1 RES1   0.0000
    17 C17     25.9820   2.1030  19.5180   C.3       1 RES1   0.0000
    18 C18     22.4810   2.9470  19.7590   C.3       1 RES1   0.0000
    19 C19     19.8580  -2.0100  14.7720   C.3       1 RES1   0.0000
    20 C20     20.9470  -4.3340  14.6090   C.3       1 RES1   0.0000
    21 C21     16.6750  -4.1510  14.6390   C.2       1 RES1   0.0000
    22 C22     17.0890 -10.6400  10.9520   C.3       1 RES1   0.0000
    23 C23     15.8160 -11.1300  10.3310   C.3       1 RES1   0.0000
    24 C24     15.8760  -4.8040  13.7350   C.2       1 RES1   0.0000
    25 C25     18.0330  -6.1190  14.9710   C.2       1 RES1   0.0000
    26 C26     18.7850   1.0370  21.2120   C.2       1 RES1   0.0000
    27 C27     18.6930  -0.5260  19.3820   C.2       1 RES1   0.0000
    28 C28     19.1940   1.8100  18.9450   C.2       1 RES1   0.0000
    29 C29     23.7730   0.4730  18.5390   C.3       1 RES1   0.0000
    30 C30     19.1980   0.1960  17.0180   C.3       1 RES1   0.0000
    31 C31     25.1830   1.5960  21.7560   C.3       1 RES1   0.0000
    32 C32     15.9300  -8.0950  12.3610   C.2       1 RES1   0.0000
    33 C33     17.2130  -6.7650  14.0350   C.2       1 RES1   0.0000
    34 C34     17.8390  -4.7960  15.2770   C.2       1 RES1   0.0000
    35 C35     22.5180  -0.3470  18.2450   C.2       1 RES1   0.0000
    36 C36     18.5870  -0.1970  20.6980   C.2       1 RES1   0.0000
    37 C37     19.1120   2.0440  20.2950   C.2       1 RES1   0.0000
    38 C38     24.5540   3.7180  20.5980   C.3       1 RES1   0.0000
    39 C39     20.8120  -0.9920  15.3620   C.3       1 RES1   0.0000
    40 C40     15.7160 -10.3930  11.6990   C.3       1 RES1   0.0000
    41 C41     22.4160  -3.8510  14.5350   C.3       1 RES1   0.0000
    42 C42     16.1190  -6.1130  13.4210   C.2       1 RES1   0.0000
    43 C43     20.4850  -0.6410  16.8220   C.3       1 RES1   0.0000
    44 C44     19.0460   0.4880  18.4870   C.2       1 RES1   0.0000
    45 C45     25.3540   0.9870  20.4450   C.3       1 RES1   0.0000
    46 C46     24.0950   2.5660  21.4530   C.3       1 RES1   0.0000
    47 C47     23.0030   1.8210  20.6800   C.3       1 RES1   0.0000
    48 C48     23.9020   0.7110  20.0370   C.3       1 RES1   0.0000
@<TRIPOS>BOND
     1     1    32    1
     2     1    33    1
     3     2     5    2
     4     2     6    2
     5     2    14    1
     6     2    34    1
     7     3    36    1
     8     4    37    1
     9     7    35    2
    10     8    39    1
    11     9    17    1
    12     9    38    1
    13    10    18    1
    14    10    38    1
    15    11    32    1
    16    11    40    1
    17    12    32    2
    18    12    42    1
    19    13    35   am
    20    13    43    1
    21    14    19    1
    22    14    20    1
    23    15    41    1
    24    16    41    1
    25    17    45    1
    26    18    47    1
    27    19    39    1
    28    20    41    1
    29    21    24    1
    30    21    34    2
    31    22    23    1
    32    22    40    1
    33    23    40    1
    34    24    42    2
    35    25    33    2
    36    25    34    1
    37    26    36    2
    38    26    37    1
    39    27    36    1
    40    27    44    2
    41    28    37    2
    42    28    44    1
    43    29    35    1
    44    29    48    1
    45    30    43    1
    46    30    44    1
    47    31    45    1
    48    31    46    1
    49    33    42    1
    50    38    46    1
    51    39    43    1
    52    45    48    1
    53    46    47    1
    54    47    48    1
@<TRIPOS>SUBSTRUCTURE
     1 RES1        1 GROUP             0 ****  ****    0  
@<TRIPOS>MOLECULE
1MRW:A:K571001
    37    39     1     0     0
SMALL
NO_CHARGES
****
Generated from the CSD

@<TRIPOS>ATOM
     1 S1      18.6560  -0.1350  19.1590   S.3       1 RES1   0.0000
     2 O2      18.8930  -3.9710  16.5770   O.2       1 RES1   0.0000
     3 O3      22.0180  -0.8780  18.9470   O.2       1 RES1   0.0000
     4 O4      22.0120   0.8540  15.6650   O.2       1 RES1   0.0000
     5 O5      14.8630  -6.0570  13.5700   O.3       1 RES1   0.0000
     6 O6      20.4550  -0.8720  13.6450   O.2       1 RES1   0.0000
     7 N7      20.0750  -3.3780  14.7530   N.am      1 RES1   0.0000
     8 N8      23.0980   1.1780  19.1190   N.am      1 RES1   0.0000
     9 N9      20.3060   0.2450  17.0980   N.am      1 RES1   0.0000
    10 C10     16.0570  -4.1080  15.2950   C.3       1 RES1   0.0000
    11 C11     18.7190   2.5310  18.7150   C.3       1 RES1   0.0000
    12 C12     20.1040   1.6120  20.6240   C.3       1 RES1   0.0000
    13 C13     25.2200   2.0700  19.8480   C.3       1 RES1   0.0000
    14 C14     25.1410  -0.2050  18.7590   C.3       1 RES1   0.0000
    15 C15     24.2050   0.1410  21.1040   C.3       1 RES1   0.0000
    16 C16     19.0880  -0.5370  17.4530   C.3       1 RES1   0.0000
    17 C17     23.2610  -6.9810  14.0940   C.2       1 RES1   0.0000
    18 C18     23.2900  -6.7270  15.4850   C.2       1 RES1   0.0000
    19 C19     22.9680  -5.9270  13.1820   C.2       1 RES1   0.0000
    20 C20     18.3900  -6.9310  12.8820   C.2       1 RES1   0.0000
    21 C21     16.9810  -6.9410  12.8440   C.2       1 RES1   0.0000
    22 C22     23.0200  -5.4140  15.9600   C.2       1 RES1   0.0000
    23 C23     22.7010  -4.6220  13.6610   C.2       1 RES1   0.0000
    24 C24     19.0700  -6.0040  13.7060   C.2       1 RES1   0.0000
    25 C25     22.4400  -3.0020  15.6320   C.3       1 RES1   0.0000
    26 C26     19.1040  -4.1060  15.3700   C.2       1 RES1   0.0000
    27 C27     22.0430   0.3490  18.7990   C.2       1 RES1   0.0000
    28 C28     21.0510   0.1400  15.9120   C.2       1 RES1   0.0000
    29 C29     16.2420  -6.0230  13.6270   C.2       1 RES1   0.0000
    30 C30     20.7940  -1.0690  14.9790   C.2       1 RES1   0.0000
    31 C31     20.9770  -2.4960  15.5060   C.3       1 RES1   0.0000
    32 C32     22.7250  -4.3580  15.0580   C.2       1 RES1   0.0000
    33 C33     20.8110   1.1080  18.1850   C.3       1 RES1   0.0000
    34 C34     16.9030  -5.0720  14.4700   C.2       1 RES1   0.0000
    35 C35     18.3510  -5.0660  14.5090   C.2       1 RES1   0.0000
    36 C36     19.6250   1.3700  19.1730   C.3       1 RES1   0.0000
    37 C37     24.4040   0.7750  19.7010   C.3       1 RES1   0.0000
@<TRIPOS>BOND
     1     1    16    1
     2     1    36    1
     3     2    26    2
     4     3    27    2
     5     4    28    2
     6     5    29    1
     7     6    30    2
     8     7    26   am
     9     7    31    1
    10     8    27   am
    11     8    37    1
    12     9    16    1
    13     9    28   am
    14     9    33    1
    15    10    34    1
    16    11    36    1
    17    12    36    1
    18    13    37    1
    19    14    37    1
    20    15    37    1
    21    17    18    2
    22    17    19    1
    23    18    22    1
    24    19    23    2
    25    20    21    2
    26    20    24    1
    27    21    29    1
    28    22    32    2
    29    23    32    1
    30    24    35    2
    31    25    31    1
    32    25    32    1
    33    26    35    1
    34    27    33    1
    35    28    30    1
    36    29    34    2
    37    30    31    1
    38    33    36    1
    39    34    35    1
@<TRIPOS>SUBSTRUCTURE
     1 RES1        1 GROUP             0 ****  ****    0  
@<TRIPOS>MOLECULE
6P9B:A:478101
    35    37     1     0     0
SMALL
NO_CHARGES
****
Generated from the CSD

@<TRIPOS>ATOM
     1 S1      19.1780  -4.0880  16.7240   S.o2      1 RES1   0.0000
     2 O2      18.4880  -3.0930  17.5220   O.2       1 RES1   0.0000
     3 O3      19.8370  -5.1460  17.4200   O.2       1 RES1   0.0000
     4 O4      22.8080  -1.2890  18.9940   O.2       1 RES1   0.0000
     5 O5      20.7110   0.1810  14.9240   O.3       1 RES1   0.0000
     6 O6      26.1960   2.1370  18.9830   O.3       1 RES1   0.0000
     7 O7      23.5970   0.8880  18.7880   O.3       1 RES1   0.0000
     8 N8      15.1610  -6.4140  13.0560   N.pl3     1 RES1   0.0000
     9 N9      21.7020   0.2800  17.7060   N.am      1 RES1   0.0000
    10 N10     20.2770  -3.4230  15.7600   N.pl3     1 RES1   0.0000
    11 C11     23.2470  -4.6450  13.4660   C.3       1 RES1   0.0000
    12 C12     23.4660  -3.7370  15.9840   C.3       1 RES1   0.0000
    13 C13     26.8460   0.9100  18.5570   C.3       1 RES1   0.0000
    14 C14     25.3470   1.9360  20.0890   C.3       1 RES1   0.0000
    15 C15     20.0270  -2.0630  15.2420   C.3       1 RES1   0.0000
    16 C16     21.1130  -4.2340  14.8670   C.2       1 RES1   0.0000
    17 C17     18.9790   0.7560  21.7980   C.2       1 RES1   0.0000
    18 C18     19.3740   1.7930  20.9170   C.2       1 RES1   0.0000
    19 C19     18.6070  -0.4270  21.2210   C.2       1 RES1   0.0000
    20 C20     25.7870  -0.1470  18.8680   C.3       1 RES1   0.0000
    21 C21     18.1720  -6.0570  15.1460   C.2       1 RES1   0.0000
    22 C22     16.8350  -4.1040  15.3520   C.2       1 RES1   0.0000
    23 C23     17.2270  -6.6670  14.2980   C.2       1 RES1   0.0000
    24 C24     15.8690  -4.6330  14.4950   C.2       1 RES1   0.0000
    25 C25     19.4540   1.5920  19.5060   C.2       1 RES1   0.0000
    26 C26     18.7050  -0.6530  19.8100   C.2       1 RES1   0.0000
    27 C27     19.2970   0.1400  17.4770   C.3       1 RES1   0.0000
    28 C28     22.6730  -0.1470  18.5210   C.2       1 RES1   0.0000
    29 C29     17.9910  -4.7880  15.7120   C.2       1 RES1   0.0000
    30 C30     20.9440  -0.9310  15.7910   C.3       1 RES1   0.0000
    31 C31     24.7060   0.5820  19.6630   C.3       1 RES1   0.0000
    32 C32     16.0680  -5.9200  13.9430   C.2       1 RES1   0.0000
    33 C33     20.6280  -0.5960  17.2420   C.3       1 RES1   0.0000
    34 C34     22.6350  -4.3080  14.8390   C.2       1 RES1   0.0000
    35 C35     19.1840   0.3420  18.9600   C.2       1 RES1   0.0000
@<TRIPOS>BOND
     1     1     2    2
     2     1     3    2
     3     1    10    1
     4     1    29    1
     5     4    28    2
     6     5    30    1
     7     6    13    1
     8     6    14    1
     9     7    28    1
    10     7    31    1
    11     8    32    1
    12     9    28   am
    13     9    33    1
    14    10    15    1
    15    10    16    1
    16    11    34    1
    17    12    34    1
    18    13    20    1
    19    14    31    1
    20    15    30    1
    21    16    34    2
    22    17    18    2
    23    17    19    1
    24    18    25    1
    25    19    26    2
    26    20    31    1
    27    21    23    2
    28    21    29    1
    29    22    24    1
    30    22    29    2
    31    23    32    1
    32    24    32    2
    33    25    35    2
    34    26    35    1
    35    27    33    1
    36    27    35    1
    37    30    33    1
@<TRIPOS>SUBSTRUCTURE
     1 RES1        1 GROUP             0 ****  ****    0  
