@<TRIPOS>MOLECULE
3NUX:A:3NV900
    28    31     1     0     0
SMALL
NO_CHARGES
****
Generated from the CSD

@<TRIPOS>ATOM
     1 Cl1     16.1400  23.6480   4.1730   Cl        1 RES1   0.0000
     2 N2      14.3340  25.5600   3.8800   N.2       1 RES1   0.0000
     3 N3      13.8010  26.6690   4.3980   N.2       1 RES1   0.0000
     4 N4      10.5070  31.5580  13.8410   N.2       1 RES1   0.0000
     5 N5      18.1600  25.6600   9.1310   N.2       1 RES1   0.0000
     6 N6      15.0970  27.2410  11.8920   N.2       1 RES1   0.0000
     7 N7      16.6830  26.9260  10.3040   N.2       1 RES1   0.0000
     8 N8      16.1650  26.3860   8.0770   N.2       1 RES1   0.0000
     9 N9      12.3040  29.7070  12.3440   N.pl3     1 RES1   0.0000
    10 C10     14.7080  29.3950   5.7840   C.3       1 RES1   0.0000
    11 C11     12.5260  28.2400   6.3390   C.3       1 RES1   0.0000
    12 C12     11.3670  32.0480  12.7480   C.3       1 RES1   0.0000
    13 C13     11.2390  30.4880  14.5670   C.3       1 RES1   0.0000
    14 C14     18.5040  25.0230   7.9870   C.2       1 RES1   0.0000
    15 C15     14.0230  27.9170  12.4170   C.2       1 RES1   0.0000
    16 C16     11.6350  30.8920  11.7220   C.3       1 RES1   0.0000
    17 C17     11.6380  29.3010  13.6230   C.3       1 RES1   0.0000
    18 C18     17.7130  25.0430   6.8210   C.2       1 RES1   0.0000
    19 C19     15.1160  28.7760  10.0130   C.2       1 RES1   0.0000
    20 C20     14.0010  29.4760  10.5580   C.2       1 RES1   0.0000
    21 C21     17.0000  26.2910   9.1360   C.2       1 RES1   0.0000
    22 C22     15.3380  25.0770   4.6570   C.2       1 RES1   0.0000
    23 C23     15.6460  27.6600  10.7190   C.2       1 RES1   0.0000
    24 C24     16.4860  25.7540   6.9020   C.2       1 RES1   0.0000
    25 C25     14.4780  26.8960   5.5240   C.2       1 RES1   0.0000
    26 C26     13.3930  29.0500  11.7870   C.2       1 RES1   0.0000
    27 C27     14.0550  28.1160   6.3340   C.3       1 RES1   0.0000
    28 C28     15.4970  25.8790   5.7620   C.2       1 RES1   0.0000
@<TRIPOS>BOND
     1     1    22    1
     2     2     3    1
     3     2    22    2
     4     3    25    1
     5     4    12    1
     6     4    13    1
     7     5    14    2
     8     5    21    1
     9     6    15    2
    10     6    23    1
    11     7    21    1
    12     7    23    1
    13     8    21    2
    14     8    24    1
    15     9    16    1
    16     9    17    1
    17     9    26    1
    18    10    27    1
    19    11    27    1
    20    12    16    1
    21    13    17    1
    22    14    18    1
    23    15    26    1
    24    18    24    2
    25    19    20    1
    26    19    23    2
    27    20    26    2
    28    22    28    1
    29    24    28    1
    30    25    27    1
    31    25    28    2
@<TRIPOS>SUBSTRUCTURE
     1 RES1        1 GROUP             0 ****  ****    0  
@<TRIPOS>MOLECULE
6OQO:A:N1J401
    34    39     1     0     0
SMALL
NO_CHARGES
****
Generated from the CSD

@<TRIPOS>ATOM
     1 F1      17.8990  24.6330   5.8450   F         1 RES1   0.0000
     2 N2      14.6780  26.0790   3.9080   N.2       1 RES1   0.0000
     3 N3      17.8830  25.3630   9.3180   N.2       1 RES1   0.0000
     4 N4      15.2050  27.5610  12.3750   N.2       1 RES1   0.0000
     5 N5      16.4840  26.5250  10.7320   N.2       1 RES1   0.0000
     6 N6      16.0060  26.3380   8.3970   N.2       1 RES1   0.0000
     7 N7      13.8800  26.9750   4.6210   N.pl3     1 RES1   0.0000
     8 N8       9.4480  31.9210  13.7030   N.3       1 RES1   0.0000
     9 N9      13.0970  30.4990  12.5950   N.3       1 RES1   0.0000
    10 C10      8.9250  33.5480  15.4710   C.3       1 RES1   0.0000
    11 C11     12.3860  27.3900   7.4430   C.3       1 RES1   0.0000
    12 C12      8.8080  32.0920  15.0160   C.3       1 RES1   0.0000
    13 C13     15.5940  25.6160   4.7060   C.2       1 RES1   0.0000
    14 C14     18.2580  24.8880   8.1470   C.2       1 RES1   0.0000
    15 C15     14.4010  28.4880  12.8580   C.2       1 RES1   0.0000
    16 C16     12.7390  27.6930   4.0370   C.3       1 RES1   0.0000
    17 C17      9.7200  30.4930  13.4350   C.3       1 RES1   0.0000
    18 C18     10.8980  32.1920  13.7840   C.3       1 RES1   0.0000
    19 C19     12.3160  29.9490  13.7300   C.3       1 RES1   0.0000
    20 C20     11.8450  30.6540  11.8160   C.3       1 RES1   0.0000
    21 C21     12.9330  29.2040   4.1910   C.3       1 RES1   0.0000
    22 C22     12.5210  29.5950   5.6080   C.3       1 RES1   0.0000
    23 C23     15.2220  28.5800  10.2560   C.2       1 RES1   0.0000
    24 C24     14.3740  29.5730  10.7260   C.2       1 RES1   0.0000
    25 C25     13.6840  29.3660   6.5690   C.3       1 RES1   0.0000
    26 C26     16.7800  26.0810   9.4440   C.2       1 RES1   0.0000
    27 C27     15.6280  27.5650  11.1210   C.2       1 RES1   0.0000
    28 C28     17.4840  25.1340   7.0280   C.2       1 RES1   0.0000
    29 C29     16.3070  25.8980   7.1680   C.2       1 RES1   0.0000
    30 C30     13.9520  29.5250  12.0560   C.2       1 RES1   0.0000
    31 C31     14.3450  27.0370   5.8950   C.2       1 RES1   0.0000
    32 C32     13.7650  27.8960   7.0030   C.3       1 RES1   0.0000
    33 C33     15.4340  26.1940   5.9850   C.2       1 RES1   0.0000
    34 C34     11.1880  30.8210  13.1870   C.3       1 RES1   0.0000
@<TRIPOS>BOND
     1     1    28    1
     2     2     7    1
     3     2    13    2
     4     3    14    2
     5     3    26    1
     6     4    15    2
     7     4    27    1
     8     5    26    1
     9     5    27    1
    10     6    26    2
    11     6    29    1
    12     7    16    1
    13     7    31    1
    14     8    12    1
    15     8    17    1
    16     8    18    1
    17     9    19    1
    18     9    20    1
    19     9    30    1
    20    10    12    1
    21    11    32    1
    22    13    33    1
    23    14    28    1
    24    15    30    1
    25    16    21    1
    26    17    34    1
    27    18    34    1
    28    19    34    1
    29    20    34    1
    30    21    22    1
    31    22    25    1
    32    23    24    1
    33    23    27    2
    34    24    30    2
    35    25    32    1
    36    28    29    2
    37    29    33    1
    38    31    32    1
    39    31    33    2
@<TRIPOS>SUBSTRUCTURE
     1 RES1        1 GROUP             0 ****  ****    0  
@<TRIPOS>MOLECULE
5L2T:A:6ZZ900
    32    36     1     0     0
SMALL
NO_CHARGES
****
Generated from the CSD

@<TRIPOS>ATOM
     1 O1      17.2420  25.5590   2.3460   O.2       1 RES1   0.0000
     2 N2      10.3390  32.5740  11.6040   N.2       1 RES1   0.0000
     3 N3      17.8980  25.6680   9.0210   N.2       1 RES1   0.0000
     4 N4      14.9790  28.0830  11.4830   N.2       1 RES1   0.0000
     5 N5      16.5560  27.2040  10.0170   N.2       1 RES1   0.0000
     6 N6      16.0370  26.5930   7.8100   N.2       1 RES1   0.0000
     7 N7      15.4490  24.2600   2.7830   N.am      1 RES1   0.0000
     8 N8      12.4890  30.7800  11.1030   N.pl3     1 RES1   0.0000
     9 N9      15.9340  26.0000   5.4670   N.pl3     1 RES1   0.0000
    10 C10     15.1190  24.0250   1.3760   C.3       1 RES1   0.0000
    11 C11     14.5890  23.5640   3.7340   C.3       1 RES1   0.0000
    12 C12     10.6220  32.0820  10.2270   C.3       1 RES1   0.0000
    13 C13     11.5680  32.6100  12.4430   C.3       1 RES1   0.0000
    14 C14     13.9870  28.9500  11.7320   C.2       1 RES1   0.0000
    15 C15     18.3050  25.0690   7.8980   C.2       1 RES1   0.0000
    16 C16     11.2790  30.7230  10.2800   C.3       1 RES1   0.0000
    17 C17     12.2340  31.2540  12.4670   C.3       1 RES1   0.0000
    18 C18     13.7390  28.9900   5.3890   C.3       1 RES1   0.0000
    19 C19     12.9340  27.9860   6.1330   C.3       1 RES1   0.0000
    20 C20     15.2160  29.0810   9.3100   C.2       1 RES1   0.0000
    21 C21     15.1050  28.3830   5.2170   C.3       1 RES1   0.0000
    22 C22     13.4890  26.6060   5.7400   C.3       1 RES1   0.0000
    23 C23     14.1920  29.9630   9.5950   C.2       1 RES1   0.0000
    24 C24     17.7900  24.7080   5.3360   C.2       1 RES1   0.0000
    25 C25     16.8010  26.4360   8.9120   C.2       1 RES1   0.0000
    26 C26     15.5750  28.1390  10.2830   C.2       1 RES1   0.0000
    27 C27     16.4700  25.0410   3.1530   C.2       1 RES1   0.0000
    28 C28     16.5060  25.9490   6.7290   C.2       1 RES1   0.0000
    29 C29     13.5450  29.9100  10.8210   C.2       1 RES1   0.0000
    30 C30     14.8200  26.8910   5.0420   C.3       1 RES1   0.0000
    31 C31     16.7500  25.2190   4.6150   C.2       1 RES1   0.0000
    32 C32     17.6640  25.1470   6.6680   C.2       1 RES1   0.0000
@<TRIPOS>BOND
     1     1    27    2
     2     2    12    1
     3     2    13    1
     4     3    15    2
     5     3    25    1
     6     4    14    2
     7     4    26    1
     8     5    25    1
     9     5    26    1
    10     6    25    2
    11     6    28    1
    12     7    10    1
    13     7    11    1
    14     7    27   am
    15     8    16    1
    16     8    17    1
    17     8    29    1
    18     9    28    1
    19     9    30    1
    20     9    31    1
    21    12    16    1
    22    13    17    1
    23    14    29    1
    24    15    32    1
    25    18    19    1
    26    18    21    1
    27    19    22    1
    28    20    23    1
    29    20    26    2
    30    21    30    1
    31    22    30    1
    32    23    29    2
    33    24    31    2
    34    24    32    1
    35    27    31    1
    36    28    32    2
@<TRIPOS>SUBSTRUCTURE
     1 RES1        1 GROUP             0 ****  ****    0  
@<TRIPOS>MOLECULE
6OQL:A:N1A4000
    32    36     1     0     0
SMALL
NO_CHARGES
****
Generated from the CSD

@<TRIPOS>ATOM
     1 F1      18.0930  24.6700   5.8960   F         1 RES1   0.0000
     2 N2      14.8360  26.3630   3.9940   N.2       1 RES1   0.0000
     3 N3      18.2120  25.5310   9.3750   N.2       1 RES1   0.0000
     4 N4      15.6060  27.4650  12.5000   N.2       1 RES1   0.0000
     5 N5      16.7800  26.7580  10.6620   N.2       1 RES1   0.0000
     6 N6      16.3550  26.6720   8.3880   N.2       1 RES1   0.0000
     7 N7      14.0200  27.0970   4.8130   N.pl3     1 RES1   0.0000
     8 N8      10.6680  31.0770  14.3300   N.3       1 RES1   0.0000
     9 N9      12.7670  29.7240  12.9500   N.pl3     1 RES1   0.0000
    10 C10      9.3780  31.7630  14.4120   C.3       1 RES1   0.0000
    11 C11     12.6550  27.0700   7.7410   C.3       1 RES1   0.0000
    12 C12     15.8320  25.9780   4.7680   C.2       1 RES1   0.0000
    13 C13     18.4920  25.0070   8.1770   C.2       1 RES1   0.0000
    14 C14     14.6140  28.1740  13.0540   C.2       1 RES1   0.0000
    15 C15     10.4960  29.7100  13.8470   C.3       1 RES1   0.0000
    16 C16     11.5800  31.7960  13.4440   C.3       1 RES1   0.0000
    17 C17     12.7910  27.6530   4.2520   C.3       1 RES1   0.0000
    18 C18     11.8250  28.9860  13.7930   C.3       1 RES1   0.0000
    19 C19     12.9290  31.1110  13.3880   C.3       1 RES1   0.0000
    20 C20     12.6530  29.1480   4.4600   C.3       1 RES1   0.0000
    21 C21     12.3590  29.5860   5.8830   C.3       1 RES1   0.0000
    22 C22     15.0770  28.4850  10.3880   C.2       1 RES1   0.0000
    23 C23     14.0670  29.2110  10.9870   C.2       1 RES1   0.0000
    24 C24     13.4760  29.3460   6.8910   C.3       1 RES1   0.0000
    25 C25     17.1480  26.3420   9.4180   C.2       1 RES1   0.0000
    26 C26     15.8240  27.6120  11.1850   C.2       1 RES1   0.0000
    27 C27     17.7420  25.2600   7.0610   C.2       1 RES1   0.0000
    28 C28     16.6100  26.1320   7.1870   C.2       1 RES1   0.0000
    29 C29     13.8110  29.0570  12.3410   C.2       1 RES1   0.0000
    30 C30     14.5130  27.1660   6.0840   C.2       1 RES1   0.0000
    31 C31     13.8330  27.8840   7.2070   C.3       1 RES1   0.0000
    32 C32     15.7030  26.4380   6.0860   C.2       1 RES1   0.0000
@<TRIPOS>BOND
     1     1    27    1
     2     2     7    1
     3     2    12    2
     4     3    13    2
     5     3    25    1
     6     4    14    2
     7     4    26    1
     8     5    25    1
     9     5    26    1
    10     6    25    2
    11     6    28    1
    12     7    17    1
    13     7    30    1
    14     8    10    1
    15     8    15    1
    16     8    16    1
    17     9    18    1
    18     9    19    1
    19     9    29    1
    20    11    31    1
    21    12    32    1
    22    13    27    1
    23    14    29    1
    24    15    18    1
    25    16    19    1
    26    17    20    1
    27    20    21    1
    28    21    24    1
    29    22    23    1
    30    22    26    2
    31    23    29    2
    32    24    31    1
    33    27    28    2
    34    28    32    1
    35    30    31    1
    36    30    32    2
@<TRIPOS>SUBSTRUCTURE
     1 RES1        1 GROUP             0 ****  ****    0  
@<TRIPOS>MOLECULE
3NUP:A:3NU900
    22    24     1     0     0
SMALL
NO_CHARGES
****
Generated from the CSD

@<TRIPOS>ATOM
     1 N1      14.5260  25.7460   3.5650   N.2       1 RES1   0.0000
     2 N2      13.7580  26.6490   4.2290   N.2       1 RES1   0.0000
     3 N3      18.1990  25.4050   8.7200   N.2       1 RES1   0.0000
     4 N4      16.9680  26.6810  10.0850   N.2       1 RES1   0.0000
     5 N5      16.1980  26.3380   7.8640   N.2       1 RES1   0.0000
     6 N6      13.9250  29.4670  10.9890   N.3       1 RES1   0.0000
     7 C7      12.9330  30.2340  11.7670   C.3       1 RES1   0.0000
     8 C8      13.6460  29.1450   5.8330   C.3       1 RES1   0.0000
     9 C9      12.2760  27.3080   6.7820   C.3       1 RES1   0.0000
    10 C10     18.4500  24.8220   7.5370   C.2       1 RES1   0.0000
    11 C11     15.2960  29.7270  11.5570   C.3       1 RES1   0.0000
    12 C12     13.5410  28.0590  10.9920   C.3       1 RES1   0.0000
    13 C13     15.5600  25.2960   4.2830   C.2       1 RES1   0.0000
    14 C14     17.6110  24.9360   6.4310   C.2       1 RES1   0.0000
    15 C15     16.3570  28.9190  10.7550   C.3       1 RES1   0.0000
    16 C16     14.5270  27.2390  10.1800   C.3       1 RES1   0.0000
    17 C17     17.1110  26.1320   8.8370   C.2       1 RES1   0.0000
    18 C18     15.9390  27.4390  10.7990   C.3       1 RES1   0.0000
    19 C19     16.4690  25.7310   6.6440   C.2       1 RES1   0.0000
    20 C20     14.3340  26.7700   5.4100   C.2       1 RES1   0.0000
    21 C21     13.6920  27.7400   6.4110   C.3       1 RES1   0.0000
    22 C22     15.4870  25.9390   5.5180   C.2       1 RES1   0.0000
@<TRIPOS>BOND
     1     1     2    1
     2     1    13    2
     3     2    20    1
     4     3    10    2
     5     3    17    1
     6     4    17    1
     7     4    18    1
     8     5    17    2
     9     5    19    1
    10     6     7    1
    11     6    11    1
    12     6    12    1
    13     8    21    1
    14     9    21    1
    15    10    14    1
    16    11    15    1
    17    12    16    1
    18    13    22    1
    19    14    19    2
    20    15    18    1
    21    16    18    1
    22    19    22    1
    23    20    21    1
    24    20    22    2
@<TRIPOS>SUBSTRUCTURE
     1 RES1        1 GROUP             0 ****  ****    0  
@<TRIPOS>MOLECULE
4EZ5:A:0RS900
    36    41     1     0     0
SMALL
NO_CHARGES
****
Generated from the CSD

@<TRIPOS>ATOM
     1 O1      18.0230  24.9140   9.4650   O.2       1 RES1   0.0000
     2 N2      13.5530  25.4080   2.4110   N.2       1 RES1   0.0000
     3 N3      17.1270  25.0300   4.5250   N.2       1 RES1   0.0000
     4 N4      16.3830  26.8320  10.7930   N.2       1 RES1   0.0000
     5 N5      15.1940  28.3980  12.3000   N.2       1 RES1   0.0000
     6 N6      15.7770  27.6790   8.7950   N.2       1 RES1   0.0000
     7 N7      10.7500  29.6080  16.1700   N.3       1 RES1   0.0000
     8 N8      13.9800  30.0270  13.4270   N.pl3     1 RES1   0.0000
     9 C9      10.1660  30.6050  17.0640   C.3       1 RES1   0.0000
    10 C10      9.7260  29.1070  15.2480   C.3       1 RES1   0.0000
    11 C11     18.1830  24.6160   5.2570   C.2       1 RES1   0.0000
    12 C12     12.8850  26.5650   2.5480   C.2       1 RES1   0.0000
    13 C13     14.5710  25.1840   3.2610   C.2       1 RES1   0.0000
    14 C14     14.3320  29.5060  14.7450   C.3       1 RES1   0.0000
    15 C15     13.1050  31.1920  13.5410   C.3       1 RES1   0.0000
    16 C16     12.7600  29.6930   4.5770   C.2       1 RES1   0.0000
    17 C17     13.8140  29.4810   5.4850   C.2       1 RES1   0.0000
    18 C18     18.2870  24.7890   6.6420   C.2       1 RES1   0.0000
    19 C19     13.9570  30.0800  11.0350   C.2       1 RES1   0.0000
    20 C20     13.0510  28.9920  15.4270   C.3       1 RES1   0.0000
    21 C21     11.7600  30.8020  14.1730   C.3       1 RES1   0.0000
    22 C22     12.4440  28.7320   3.5950   C.2       1 RES1   0.0000
    23 C23     14.3720  29.5510   9.7970   C.2       1 RES1   0.0000
    24 C24     14.5560  28.2900   5.3880   C.2       1 RES1   0.0000
    25 C25     16.1310  25.8450   6.5260   C.2       1 RES1   0.0000
    26 C26     16.4760  26.7310   9.4420   C.2       1 RES1   0.0000
    27 C27     15.5720  27.9140  11.0830   C.2       1 RES1   0.0000
    28 C28     14.3840  29.4880  12.2490   C.2       1 RES1   0.0000
    29 C29     17.3010  25.6340   8.7860   C.2       1 RES1   0.0000
    30 C30     15.2110  28.4220   9.8100   C.2       1 RES1   0.0000
    31 C31     16.1130  25.6530   5.1390   C.2       1 RES1   0.0000
    32 C32     11.9830  30.1040  15.5340   C.3       1 RES1   0.0000
    33 C33     13.1860  27.5380   3.5170   C.2       1 RES1   0.0000
    34 C34     17.2300  25.4300   7.3090   C.2       1 RES1   0.0000
    35 C35     14.9820  26.0720   4.2870   C.2       1 RES1   0.0000
    36 C36     14.2580  27.2940   4.4130   C.2       1 RES1   0.0000
@<TRIPOS>BOND
     1     1    29    2
     2     2    12    2
     3     2    13    1
     4     3    11    2
     5     3    31    1
     6     4    26    1
     7     4    27    1
     8     5    27    2
     9     5    28    1
    10     6    26    2
    11     6    30    1
    12     7     9    1
    13     7    10    1
    14     7    32    1
    15     8    14    1
    16     8    15    1
    17     8    28    1
    18    11    18    1
    19    12    33    1
    20    13    35    2
    21    14    20    1
    22    15    21    1
    23    16    17    2
    24    16    22    1
    25    17    24    1
    26    18    34    2
    27    19    23    1
    28    19    28    2
    29    20    32    1
    30    21    32    1
    31    22    33    2
    32    23    30    2
    33    24    36    2
    34    25    31    2
    35    25    34    1
    36    26    29    1
    37    27    30    1
    38    29    34    1
    39    31    35    1
    40    33    36    1
    41    35    36    1
@<TRIPOS>SUBSTRUCTURE
     1 RES1        1 GROUP             0 ****  ****    0  
@<TRIPOS>MOLECULE
5L2I:A:LQQ900
    33    37     1     0     0
SMALL
NO_CHARGES
****
Generated from the CSD

@<TRIPOS>ATOM
     1 O1      14.3590  26.9310   4.2360   O.2       1 RES1   0.0000
     2 O2      17.2170  25.4050   2.5920   O.2       1 RES1   0.0000
     3 N3      10.6720  31.0120  14.5530   N.2       1 RES1   0.0000
     4 N4      17.9260  25.7380   9.1990   N.2       1 RES1   0.0000
     5 N5      15.2910  27.0710  12.3530   N.2       1 RES1   0.0000
     6 N6      16.8830  27.0080  10.7550   N.2       1 RES1   0.0000
     7 N7      15.9190  26.9120   8.6120   N.2       1 RES1   0.0000
     8 N8      12.9630  29.6150  13.6030   N.3       1 RES1   0.0000
     9 N9      15.1010  26.8660   6.4280   N.am      1 RES1   0.0000
    10 C10     15.1240  24.3000   2.6490   C.3       1 RES1   0.0000
    11 C11     17.9720  23.8970   5.2200   C.3       1 RES1   0.0000
    12 C12     12.0300  31.3440  15.0570   C.3       1 RES1   0.0000
    13 C13     10.5790  29.5780  14.1660   C.3       1 RES1   0.0000
    14 C14     14.3500  27.7040  13.0660   C.2       1 RES1   0.0000
    15 C15     17.9260  25.1830   7.9850   C.2       1 RES1   0.0000
    16 C16     13.0650  31.0210  14.0050   C.3       1 RES1   0.0000
    17 C17     11.6240  29.2500  13.1250   C.3       1 RES1   0.0000
    18 C18     13.1770  29.9590   5.9700   C.3       1 RES1   0.0000
    19 C19     12.3080  28.8460   5.5270   C.3       1 RES1   0.0000
    20 C20     15.7280  29.1410  11.2080   C.2       1 RES1   0.0000
    21 C21     14.5110  29.3220   6.2610   C.3       1 RES1   0.0000
    22 C22     12.6910  27.6680   6.3940   C.3       1 RES1   0.0000
    23 C23     14.7480  29.7670  11.9510   C.2       1 RES1   0.0000
    24 C24     16.8970  26.5570   9.4660   C.2       1 RES1   0.0000
    25 C25     15.9630  27.7790  11.4320   C.2       1 RES1   0.0000
    26 C26     15.1380  26.4580   5.0560   C.2       1 RES1   0.0000
    27 C27     16.2370  25.0860   3.2690   C.2       1 RES1   0.0000
    28 C28     15.9940  26.3790   7.3770   C.2       1 RES1   0.0000
    29 C29     14.0260  29.0470  12.8980   C.2       1 RES1   0.0000
    30 C30     14.1410  27.9390   6.8020   C.3       1 RES1   0.0000
    31 C31     17.0150  24.9870   5.6040   C.2       1 RES1   0.0000
    32 C32     16.9860  25.4520   6.9860   C.2       1 RES1   0.0000
    33 C33     16.1450  25.4920   4.6800   C.2       1 RES1   0.0000
@<TRIPOS>BOND
     1     1    26    2
     2     2    27    2
     3     3    12    1
     4     3    13    1
     5     4    15    2
     6     4    24    1
     7     5    14    2
     8     5    25    1
     9     6    24    1
    10     6    25    1
    11     7    24    2
    12     7    28    1
    13     8    16    1
    14     8    17    1
    15     8    29    1
    16     9    26   am
    17     9    28    1
    18     9    30    1
    19    10    27    1
    20    11    31    1
    21    12    16    1
    22    13    17    1
    23    14    29    1
    24    15    32    1
    25    18    19    1
    26    18    21    1
    27    19    22    1
    28    20    23    1
    29    20    25    2
    30    21    30    1
    31    22    30    1
    32    23    29    2
    33    26    33    1
    34    27    33    1
    35    28    32    2
    36    31    32    1
    37    31    33    2
@<TRIPOS>SUBSTRUCTURE
     1 RES1        1 GROUP             0 ****  ****    0  
@<TRIPOS>MOLECULE
5L2S:A:6ZV900
    37    41     1     0     0
SMALL
NO_CHARGES
****
Generated from the CSD

@<TRIPOS>ATOM
     1 F1      18.4000  24.6680   5.9350   F         1 RES1   0.0000
     2 F2      15.1630  24.6530   2.5600   F         1 RES1   0.0000
     3 N3      18.0210  25.5890   9.4120   N.2       1 RES1   0.0000
     4 N4      15.3550  27.9720  12.1540   N.2       1 RES1   0.0000
     5 N5      16.4040  26.7320  10.5260   N.2       1 RES1   0.0000
     6 N6      16.0650  26.3410   8.2360   N.2       1 RES1   0.0000
     7 N7      12.9220  26.6410   2.7490   N.2       1 RES1   0.0000
     8 N8       9.1720  30.3900  13.8110   N.3       1 RES1   0.0000
     9 N9      11.9470  30.5170  13.0000   N.3       1 RES1   0.0000
    10 N10     12.6310  27.8720   4.6150   N.pl3     1 RES1   0.0000
    11 C11      7.0960  30.5870  12.4390   C.3       1 RES1   0.0000
    12 C12     11.0510  28.2500   2.7050   C.3       1 RES1   0.0000
    13 C13     12.6410  29.8060   6.1640   C.3       1 RES1   0.0000
    14 C14     11.3520  27.7080   6.7360   C.3       1 RES1   0.0000
    15 C15      8.3730  31.2340  12.8880   C.3       1 RES1   0.0000
    16 C16     18.4860  25.0630   8.2700   C.2       1 RES1   0.0000
    17 C17     14.5460  28.9740  12.5340   C.2       1 RES1   0.0000
    18 C18     10.1710  31.1680  14.5610   C.3       1 RES1   0.0000
    19 C19      9.8270  29.2710  13.1170   C.3       1 RES1   0.0000
    20 C20     11.2810  31.6500  13.6500   C.3       1 RES1   0.0000
    21 C21     10.9520  29.7620  12.2200   C.3       1 RES1   0.0000
    22 C22     13.0520  30.9840  12.1500   C.3       1 RES1   0.0000
    23 C23     15.1010  28.7250   9.8820   C.2       1 RES1   0.0000
    24 C24     14.2810  29.7460  10.3190   C.2       1 RES1   0.0000
    25 C25     15.7550  25.1820   4.7670   C.2       1 RES1   0.0000
    26 C26     14.5710  26.8940   5.9540   C.2       1 RES1   0.0000
    27 C27     16.8360  26.2140   9.3350   C.2       1 RES1   0.0000
    28 C28     15.6230  27.8410  10.8410   C.2       1 RES1   0.0000
    29 C29     12.2070  27.5660   3.3340   C.2       1 RES1   0.0000
    30 C30     11.8530  28.6230   5.6350   C.3       1 RES1   0.0000
    31 C31     17.7950  25.1360   7.0520   C.2       1 RES1   0.0000
    32 C32     14.9360  25.3700   3.6810   C.2       1 RES1   0.0000
    33 C33     13.8900  26.2900   3.6720   C.2       1 RES1   0.0000
    34 C34     16.5190  25.8000   7.0870   C.2       1 RES1   0.0000
    35 C35     13.7430  27.0320   4.8450   C.2       1 RES1   0.0000
    36 C36     13.9760  29.8880  11.6640   C.2       1 RES1   0.0000
    37 C37     15.6020  25.9520   5.9240   C.2       1 RES1   0.0000
@<TRIPOS>BOND
     1     1    31    1
     2     2    32    1
     3     3    16    2
     4     3    27    1
     5     4    17    2
     6     4    28    1
     7     5    27    1
     8     5    28    1
     9     6    27    2
    10     6    34    1
    11     7    29    2
    12     7    33    1
    13     8    15    1
    14     8    18    1
    15     8    19    1
    16     9    20    1
    17     9    21    1
    18     9    22    1
    19    10    29    1
    20    10    30    1
    21    10    35    1
    22    11    15    1
    23    12    29    1
    24    13    30    1
    25    14    30    1
    26    16    31    1
    27    17    36    1
    28    18    20    1
    29    19    21    1
    30    22    36    1
    31    23    24    1
    32    23    28    2
    33    24    36    2
    34    25    32    1
    35    25    37    2
    36    26    35    2
    37    26    37    1
    38    31    34    2
    39    32    33    2
    40    33    35    1
    41    34    37    1
@<TRIPOS>SUBSTRUCTURE
     1 RES1        1 GROUP             0 ****  ****    0  
@<TRIPOS>MOLECULE
4AUA:A:4AU1302
    16    18     1     0     0
SMALL
NO_CHARGES
****
Generated from the CSD

@<TRIPOS>ATOM
     1 O1      18.0910  25.5590   9.4360   O.2       1 RES1   0.0000
     2 N2      17.6170  24.8660   6.7670   N.2       1 RES1   0.0000
     3 N3      15.4050  27.8920   9.0800   N.2       1 RES1   0.0000
     4 N4      16.7690  27.4890  10.8430   N.2       1 RES1   0.0000
     5 C5      17.1990  24.8010   5.4780   C.2       1 RES1   0.0000
     6 C6      16.2340  25.7940   5.2760   C.2       1 RES1   0.0000
     7 C7      13.8990  30.3250  11.4900   C.2       1 RES1   0.0000
     8 C8      14.7460  30.0700  12.5520   C.2       1 RES1   0.0000
     9 C9      16.0750  26.4630   6.4840   C.2       1 RES1   0.0000
    10 C10     14.0460  29.6550  10.2870   C.2       1 RES1   0.0000
    11 C11     15.7470  29.1270  12.4410   C.2       1 RES1   0.0000
    12 C12     16.4660  27.1720   9.5480   C.2       1 RES1   0.0000
    13 C13     17.2300  26.1520   8.8280   C.2       1 RES1   0.0000
    14 C14     16.9420  25.8770   7.4080   C.2       1 RES1   0.0000
    15 C15     15.0470  28.7050  10.1690   C.2       1 RES1   0.0000
    16 C16     15.8840  28.4470  11.2440   C.2       1 RES1   0.0000
@<TRIPOS>BOND
     1     1    13    2
     2     2     5    1
     3     2    14    1
     4     3    12    2
     5     3    15    1
     6     4    12    1
     7     4    16    1
     8     5     6    2
     9     6     9    1
    10     7     8    2
    11     7    10    1
    12     8    11    1
    13     9    14    2
    14    10    15    2
    15    11    16    2
    16    12    13    1
    17    13    14    1
    18    15    16    1
@<TRIPOS>SUBSTRUCTURE
     1 RES1        1 GROUP             0 ****  ****    0  
