@<TRIPOS>MOLECULE
3KEN:A:ZZD370
    26    28     1     0     0
SMALL
NO_CHARGES
****
Generated from the CSD

@<TRIPOS>ATOM
     1 S1      17.0430  13.7240 108.1920   S.3       1 RES1   0.0000
     2 O2      15.8900  15.7650 104.1810   O.co2     1 RES1   0.0000
     3 O3      16.4240  13.8490 103.1870   O.co2     1 RES1   0.0000
     4 N4      16.4300  12.4030 105.3610   N.3       1 RES1   0.0000
     5 C5      17.1110  14.4560 106.5140   C.3       1 RES1   0.0000
     6 C6      16.0030  18.5500 109.9480   C.2       1 RES1   0.0000
     7 C7      21.8610  15.0380 107.0670   C.2       1 RES1   0.0000
     8 C8      18.3700  13.1010 113.1790   C.2       1 RES1   0.0000
     9 C9      17.3370  18.4310 110.3080   C.2       1 RES1   0.0000
    10 C10     15.3510  17.4860 109.3270   C.2       1 RES1   0.0000
    11 C11     21.4980  13.8780 107.7440   C.2       1 RES1   0.0000
    12 C12     21.0200  16.1460 107.0980   C.2       1 RES1   0.0000
    13 C13     19.3240  14.0240 112.7560   C.2       1 RES1   0.0000
    14 C14     17.3550  12.7190 112.3120   C.2       1 RES1   0.0000
    15 C15     18.0240  17.2460 110.0470   C.2       1 RES1   0.0000
    16 C16     16.0450  16.3090 109.0720   C.2       1 RES1   0.0000
    17 C17     20.3010  13.8310 108.4510   C.2       1 RES1   0.0000
    18 C18     19.8240  16.0900 107.8080   C.2       1 RES1   0.0000
    19 C19     19.2570  14.5580 111.4760   C.2       1 RES1   0.0000
    20 C20     17.2930  13.2600 111.0280   C.2       1 RES1   0.0000
    21 C21     16.1480  14.5410 104.1900   C.2       1 RES1   0.0000
    22 C22     16.1080  13.8260 105.5430   C.3       1 RES1   0.0000
    23 C23     17.3870  16.1770 109.4280   C.2       1 RES1   0.0000
    24 C24     19.4500  14.9360 108.4920   C.2       1 RES1   0.0000
    25 C25     18.2390  14.1840 110.5980   C.2       1 RES1   0.0000
    26 C26     18.0960  14.8290 109.2100   C.3       1 RES1   0.0000
@<TRIPOS>BOND
     1     1     5    1
     2     1    26    1
     3     2    21    1
     4     3    21    2
     5     4    22    1
     6     5    22    1
     7     6     9    2
     8     6    10    1
     9     7    11    2
    10     7    12    1
    11     8    13    2
    12     8    14    1
    13     9    15    1
    14    10    16    2
    15    11    17    1
    16    12    18    2
    17    13    19    1
    18    14    20    2
    19    15    23    2
    20    16    23    1
    21    17    24    2
    22    18    24    1
    23    19    25    2
    24    20    25    1
    25    21    22    1
    26    23    26    1
    27    24    26    1
    28    25    26    1
@<TRIPOS>SUBSTRUCTURE
     1 RES1        1 GROUP             0 ****  ****    0  
@<TRIPOS>MOLECULE
3CJO:A:K301
    33    36     1     0     0
SMALL
NO_CHARGES
****
Generated from the CSD

@<TRIPOS>ATOM
     1 F1      21.5750  17.4130 104.7590   F         1 RES1   0.0000
     2 F2      16.2400  20.4850 108.9080   F         1 RES1   0.0000
     3 F3      21.6310  12.8900 107.7890   F         1 RES1   0.0000
     4 O4      15.9930  12.4730 108.6590   O.3       1 RES1   0.0000
     5 O5      15.6870  15.8390 110.6690   O.2       1 RES1   0.0000
     6 N6      13.9120  20.9790 109.8360   N.3       1 RES1   0.0000
     7 N7      16.6500  17.7640 109.9710   N.am      1 RES1   0.0000
     8 N8      17.5520  15.6400 109.2820   N.am      1 RES1   0.0000
     9 C9      12.6510  21.8440 109.7570   C.3       1 RES1   0.0000
    10 C10     17.9100  18.4110 110.2190   C.3       1 RES1   0.0000
    11 C11     16.1590  13.8360 108.8560   C.3       1 RES1   0.0000
    12 C12     13.9770  20.1730 111.1400   C.3       1 RES1   0.0000
    13 C13     13.9780  20.0640 108.6330   C.3       1 RES1   0.0000
    14 C14     18.4480  15.9770 108.1590   C.3       1 RES1   0.0000
    15 C15     18.1600  13.0720 113.8660   C.2       1 RES1   0.0000
    16 C16     18.7830  14.1930 113.3090   C.2       1 RES1   0.0000
    17 C17     17.3260  12.3420 113.0510   C.2       1 RES1   0.0000
    18 C18     15.2570  19.3220 111.2690   C.3       1 RES1   0.0000
    19 C19     22.5730  15.3840 105.3700   C.2       1 RES1   0.0000
    20 C20     22.5850  14.2540 106.1840   C.2       1 RES1   0.0000
    21 C21     18.5390  14.4640 111.9160   C.2       1 RES1   0.0000
    22 C22     17.0570  12.6660 111.6550   C.2       1 RES1   0.0000
    23 C23     20.5240  16.1590 106.4350   C.2       1 RES1   0.0000
    24 C24     18.9250  13.8490 108.9320   C.2       1 RES1   0.0000
    25 C25     16.6340  16.4090 110.0230   C.2       1 RES1   0.0000
    26 C26     21.5310  16.3250 105.5060   C.2       1 RES1   0.0000
    27 C27     15.3770  19.4550 108.7070   C.3       1 RES1   0.0000
    28 C28     21.5310  14.0200 107.0960   C.2       1 RES1   0.0000
    29 C29     15.4460  18.5370 109.9370   C.3       1 RES1   0.0000
    30 C30     19.3600  14.8260 108.1140   C.2       1 RES1   0.0000
    31 C31     20.4900  14.9560 107.2490   C.2       1 RES1   0.0000
    32 C32     17.6920  13.7260 111.0500   C.2       1 RES1   0.0000
    33 C33     17.5120  14.1540 109.4980   C.3       1 RES1   0.0000
@<TRIPOS>BOND
     1     1    26    1
     2     2    27    1
     3     3    28    1
     4     4    11    1
     5     5    25    2
     6     6     9    1
     7     6    12    1
     8     6    13    1
     9     7    10    1
    10     7    25   am
    11     7    29    1
    12     8    14    1
    13     8    25   am
    14     8    33    1
    15    11    33    1
    16    12    18    1
    17    13    27    1
    18    14    30    1
    19    15    16    2
    20    15    17    1
    21    16    21    1
    22    17    22    2
    23    18    29    1
    24    19    20    2
    25    19    26    1
    26    20    28    1
    27    21    32    2
    28    22    32    1
    29    23    26    2
    30    23    31    1
    31    24    30    2
    32    24    33    1
    33    27    29    1
    34    28    31    2
    35    30    31    1
    36    32    33    1
@<TRIPOS>SUBSTRUCTURE
     1 RES1        1 GROUP             0 ****  ****    0  
@<TRIPOS>MOLECULE
1X88:A:NAT801
    20    21     1     0     0
SMALL
NO_CHARGES
****
Generated from the CSD

@<TRIPOS>ATOM
     1 S1      21.6560  13.2830 108.0030   S.2       1 RES1   0.0000
     2 O2      15.3110  14.5880 109.8950   O.2       1 RES1   0.0000
     3 O3      16.0390  11.5090 113.8180   O.3       1 RES1   0.0000
     4 O4      15.9780  16.7290 109.6110   O.3       1 RES1   0.0000
     5 N5      19.8440  15.2180 108.4560   N.am      1 RES1   0.0000
     6 N6      19.2310  12.9740 109.1680   N.am      1 RES1   0.0000
     7 C7      14.4510  18.5780 109.6700   C.3       1 RES1   0.0000
     8 C8      18.3720  17.2310 108.7150   C.3       1 RES1   0.0000
     9 C9      14.6080  17.0700 109.8710   C.3       1 RES1   0.0000
    10 C10     18.9750  13.6350 113.3790   C.2       1 RES1   0.0000
    11 C11     17.9950  12.8600 113.9910   C.2       1 RES1   0.0000
    12 C12     18.9570  13.8190 112.0000   C.2       1 RES1   0.0000
    13 C13     16.9780  12.4530 111.8420   C.2       1 RES1   0.0000
    14 C14     20.1450  13.8580 108.5840   C.2       1 RES1   0.0000
    15 C15     16.2130  15.3900 109.6570   C.2       1 RES1   0.0000
    16 C16     16.9950  12.2690 113.2220   C.2       1 RES1   0.0000
    17 C17     18.6050  15.7260 108.8660   C.2       1 RES1   0.0000
    18 C18     17.9360  13.4140 109.7100   C.3       1 RES1   0.0000
    19 C19     17.9580  13.2270 111.2300   C.2       1 RES1   0.0000
    20 C20     17.6320  14.8820 109.3930   C.2       1 RES1   0.0000
@<TRIPOS>BOND
     1     1    14    2
     2     2    15    2
     3     3    16    1
     4     4     9    1
     5     4    15    1
     6     5    14   am
     7     5    17    1
     8     6    14   am
     9     6    18    1
    10     7     9    1
    11     8    17    1
    12    10    11    2
    13    10    12    1
    14    11    16    1
    15    12    19    2
    16    13    16    2
    17    13    19    1
    18    15    20    1
    19    17    20    2
    20    18    19    1
    21    18    20    1
@<TRIPOS>SUBSTRUCTURE
     1 RES1        1 GROUP             0 ****  ****    0  
@<TRIPOS>MOLECULE
6HKX:A:GCE602
    29    31     1     0     0
SMALL
NO_CHARGES
****
Generated from the CSD

@<TRIPOS>ATOM
     1 S1      19.3270  13.5750 108.9010   S.3       1 RES1   0.0000
     2 F2      20.9120  17.7990 104.5300   F         1 RES1   0.0000
     3 F3      21.9110  13.3870 107.5310   F         1 RES1   0.0000
     4 O4      15.6390  15.9050 110.0580   O.2       1 RES1   0.0000
     5 O5      15.7770  18.7700 110.1780   O.3       1 RES1   0.0000
     6 N6      15.2260  13.0580 105.5340   N.3       1 RES1   0.0000
     7 N7      19.2930  15.9800 109.2660   N.2       1 RES1   0.0000
     8 N8      16.8660  17.9090 109.8980   N.am      1 RES1   0.0000
     9 N9      17.8260  15.5710 109.5320   N.am      1 RES1   0.0000
    10 C10     15.0560  18.2970 111.2970   C.3       1 RES1   0.0000
    11 C11     18.1630  18.5420 109.6580   C.3       1 RES1   0.0000
    12 C12     16.4650  13.3520 106.2490   C.3       1 RES1   0.0000
    13 C13     16.1410  14.0870 107.5590   C.3       1 RES1   0.0000
    14 C14     17.8790  12.9640 113.6280   C.2       1 RES1   0.0000
    15 C15     17.0090  12.3120 112.7730   C.2       1 RES1   0.0000
    16 C16     18.7280  13.9480 113.1500   C.2       1 RES1   0.0000
    17 C17     22.2480  15.8470 104.8730   C.2       1 RES1   0.0000
    18 C18     16.9810  12.6450 111.4210   C.2       1 RES1   0.0000
    19 C19     18.7080  14.2790 111.8080   C.2       1 RES1   0.0000
    20 C20     22.5140  14.7190 105.6200   C.2       1 RES1   0.0000
    21 C21     16.6840  13.3060 108.7770   C.3       1 RES1   0.0000
    22 C22     20.4190  16.4000 106.3570   C.2       1 RES1   0.0000
    23 C23     19.8750  14.9450 108.3270   C.2       1 RES1   0.0000
    24 C24     16.6910  16.4320 109.8580   C.2       1 RES1   0.0000
    25 C25     21.1970  16.6750 105.2480   C.2       1 RES1   0.0000
    26 C26     21.7210  14.4690 106.7380   C.2       1 RES1   0.0000
    27 C27     17.8390  13.6180 110.9610   C.2       1 RES1   0.0000
    28 C28     20.6950  15.2810 107.0860   C.2       1 RES1   0.0000
    29 C29     17.8740  13.9940 109.4910   C.3       1 RES1   0.0000
@<TRIPOS>BOND
     1     1    23    1
     2     1    29    1
     3     2    25    1
     4     3    26    1
     5     4    24    2
     6     5     8    1
     7     5    10    1
     8     6    12    1
     9     7     9    1
    10     7    23    2
    11     8    11    1
    12     8    24   am
    13     9    24   am
    14     9    29    1
    15    12    13    1
    16    13    21    1
    17    14    15    2
    18    14    16    1
    19    15    18    1
    20    16    19    2
    21    17    20    2
    22    17    25    1
    23    18    27    2
    24    19    27    1
    25    20    26    1
    26    21    29    1
    27    22    25    2
    28    22    28    1
    29    23    28    1
    30    26    28    2
    31    27    29    1
@<TRIPOS>SUBSTRUCTURE
     1 RES1        1 GROUP             0 ****  ****    0  
@<TRIPOS>MOLECULE
5ZO9:A:4C5602
    28    30     1     0     0
SMALL
NO_CHARGES
****
Generated from the CSD

@<TRIPOS>ATOM
     1 S1      16.8310  13.8000 108.3810   S.3       1 RES1   0.0000
     2 O2      16.6580  14.3090 103.3980   O.co2     1 RES1   0.0000
     3 O3      15.1660  15.6360 104.2680   O.co2     1 RES1   0.0000
     4 O4      22.8030  14.2780 106.6990   O.3       1 RES1   0.0000
     5 N5      16.8900  12.6930 105.5350   N.3       1 RES1   0.0000
     6 C6      23.2060  15.1660 105.6540   C.3       1 RES1   0.0000
     7 C7      16.6480  14.6400 106.7950   C.3       1 RES1   0.0000
     8 C8      18.0660  13.1070 113.5040   C.2       1 RES1   0.0000
     9 C9      16.1280  18.8140 110.1980   C.2       1 RES1   0.0000
    10 C10     19.1200  13.9070 113.0220   C.2       1 RES1   0.0000
    11 C11     16.9450  12.8600 112.7090   C.2       1 RES1   0.0000
    12 C12     15.3670  17.8330 109.5920   C.2       1 RES1   0.0000
    13 C13     17.4310  18.4950 110.5750   C.2       1 RES1   0.0000
    14 C14     20.8210  15.6440 107.2560   C.2       1 RES1   0.0000
    15 C15     21.1680  13.4530 108.2040   C.2       1 RES1   0.0000
    16 C16     19.0530  14.4680 111.7410   C.2       1 RES1   0.0000
    17 C17     16.8720  13.4160 111.4280   C.2       1 RES1   0.0000
    18 C18     15.9000  16.5580 109.3910   C.2       1 RES1   0.0000
    19 C19     17.9700  17.2170 110.3650   C.2       1 RES1   0.0000
    20 C20     19.6020  15.7910 107.9430   C.2       1 RES1   0.0000
    21 C21     19.9540  13.5880 108.8840   C.2       1 RES1   0.0000
    22 C22     15.9710  14.5860 104.3790   C.2       1 RES1   0.0000
    23 C23     21.6100  14.4690 107.3630   C.2       1 RES1   0.0000
    24 C24     16.0220  13.8170 105.6820   C.3       1 RES1   0.0000
    25 C25     17.9160  14.2240 110.9200   C.2       1 RES1   0.0000
    26 C26     17.2270  16.2150 109.7490   C.2       1 RES1   0.0000
    27 C27     19.1510  14.7590 108.7840   C.2       1 RES1   0.0000
    28 C28     17.8240  14.8130 109.5220   C.3       1 RES1   0.0000
@<TRIPOS>BOND
     1     1     7    1
     2     1    28    1
     3     2    22    2
     4     3    22    1
     5     4     6    1
     6     4    23    1
     7     5    24    1
     8     7    24    1
     9     8    10    2
    10     8    11    1
    11     9    12    2
    12     9    13    1
    13    10    16    1
    14    11    17    2
    15    12    18    1
    16    13    19    2
    17    14    20    2
    18    14    23    1
    19    15    21    1
    20    15    23    2
    21    16    25    2
    22    17    25    1
    23    18    26    2
    24    19    26    1
    25    20    27    1
    26    21    27    2
    27    22    24    1
    28    25    28    1
    29    26    28    1
    30    27    28    1
@<TRIPOS>SUBSTRUCTURE
     1 RES1        1 GROUP             0 ****  ****    0  
@<TRIPOS>MOLECULE
6G6Z:A:EOK403
    19    20     1     0     0
SMALL
NO_CHARGES
****
Generated from the CSD

@<TRIPOS>ATOM
     1 S1      19.3060  14.0210 108.8650   S.3       1 RES1   0.0000
     2 O2      21.6500  13.8650 107.0150   O.2       1 RES1   0.0000
     3 O3      15.8250  15.9180 111.1340   O.2       1 RES1   0.0000
     4 N4      18.5810  16.5040 108.6610   N.2       1 RES1   0.0000
     5 N5      20.6630  15.9050 107.1350   N.am      1 RES1   0.0000
     6 N6      17.5910  15.8110 109.6550   N.am      1 RES1   0.0000
     7 C7      22.7270  15.4110 105.6140   C.3       1 RES1   0.0000
     8 C8      16.3970  18.0320 110.3350   C.3       1 RES1   0.0000
     9 C9      16.7560  13.5870 108.8280   C.3       1 RES1   0.0000
    10 C10     17.6700  12.6770 113.6800   C.2       1 RES1   0.0000
    11 C11     18.4530  13.7770 113.4220   C.2       1 RES1   0.0000
    12 C12     16.9420  12.0900 112.6620   C.2       1 RES1   0.0000
    13 C13     18.5240  14.2580 112.1320   C.2       1 RES1   0.0000
    14 C14     17.0190  12.5790 111.3680   C.2       1 RES1   0.0000
    15 C15     19.6240  15.5100 108.1230   C.2       1 RES1   0.0000
    16 C16     21.6630  14.9800 106.6300   C.2       1 RES1   0.0000
    17 C17     16.5610  16.5120 110.4200   C.2       1 RES1   0.0000
    18 C18     17.8170  13.6680 111.0960   C.2       1 RES1   0.0000
    19 C19     17.8840  14.2460 109.6180   C.3       1 RES1   0.0000
@<TRIPOS>BOND
     1     1    15    1
     2     1    19    1
     3     2    16    2
     4     3    17    2
     5     4     6    1
     6     4    15    2
     7     5    15    1
     8     5    16   am
     9     6    17   am
    10     6    19    1
    11     7    16    1
    12     8    17    1
    13     9    19    1
    14    10    11    2
    15    10    12    1
    16    11    13    1
    17    12    14    2
    18    13    18    2
    19    14    18    1
    20    18    19    1
@<TRIPOS>SUBSTRUCTURE
     1 RES1        1 GROUP             0 ****  ****    0  
@<TRIPOS>MOLECULE
2GM1:A:2AZ371
    36    40     1     0     0
SMALL
NO_CHARGES
****
Generated from the CSD

@<TRIPOS>ATOM
     1 Cl1     23.4340  13.9580 105.4130   Cl        1 RES1   0.0000
     2 O2      21.7590  13.2180 107.9690   O.2       1 RES1   0.0000
     3 O3      14.7950  14.8660 108.5090   O.2       1 RES1   0.0000
     4 N4      16.4970  13.6030 104.7830   N.3       1 RES1   0.0000
     5 N5      19.7710  16.6580 107.3780   N.2       1 RES1   0.0000
     6 N6      20.6470  16.3560 106.5490   N.pl3     1 RES1   0.0000
     7 N7      16.8450  15.8470 108.6280   N.am      1 RES1   0.0000
     8 N8      20.1250  14.6490 108.6330   N.am      1 RES1   0.0000
     9 C9      16.2720  12.3350 114.2790   C.3       1 RES1   0.0000
    10 C10     16.3460  14.1600 106.1110   C.3       1 RES1   0.0000
    11 C11     16.5130  16.4890 107.3140   C.3       1 RES1   0.0000
    12 C12     21.1210  17.0920 105.3770   C.2       1 RES1   0.0000
    13 C13     19.8800  13.7870 109.7710   C.3       1 RES1   0.0000
    14 C14     15.9450  15.6320 106.1200   C.3       1 RES1   0.0000
    15 C15     21.5820  15.2960 113.4190   C.2       1 RES1   0.0000
    16 C16     22.4050  15.1220 112.3000   C.2       1 RES1   0.0000
    17 C17     20.2120  14.9800 113.3470   C.2       1 RES1   0.0000
    18 C18     22.0910  16.3180 104.8530   C.2       1 RES1   0.0000
    19 C19     21.8380  14.6630 111.1030   C.2       1 RES1   0.0000
    20 C20     19.6530  14.5100 112.1570   C.2       1 RES1   0.0000
    21 C21     16.6060  12.4230 111.7770   C.2       1 RES1   0.0000
    22 C22     15.6860  14.3830 112.9040   C.2       1 RES1   0.0000
    23 C23     16.4790  13.0580 110.5220   C.2       1 RES1   0.0000
    24 C24     15.5620  15.0280 111.6590   C.2       1 RES1   0.0000
    25 C25     19.3550  18.0680 110.6270   C.3       1 RES1   0.0000
    26 C26     17.9040  18.2650 110.9410   C.3       1 RES1   0.0000
    27 C27     21.1180  14.2490 107.7980   C.2       1 RES1   0.0000
    28 C28     15.8270  15.0340 109.1490   C.2       1 RES1   0.0000
    29 C29     22.2550  15.1210 105.6600   C.2       1 RES1   0.0000
    30 C30     19.4090  15.8220 108.4120   C.2       1 RES1   0.0000
    31 C31     16.1960  13.0670 112.9730   C.2       1 RES1   0.0000
    32 C32     21.3830  15.1410 106.6710   C.2       1 RES1   0.0000
    33 C33     18.1710  16.2260 109.2970   C.3       1 RES1   0.0000
    34 C34     20.4660  14.3510 111.0240   C.2       1 RES1   0.0000
    35 C35     15.9650  14.3680 110.4590   C.2       1 RES1   0.0000
    36 C36     18.3250  17.7260 109.6230   C.3       1 RES1   0.0000
@<TRIPOS>BOND
     1     1    29    1
     2     2    27    2
     3     3    28    2
     4     4    10    1
     5     5     6    1
     6     5    30    2
     7     6    12    1
     8     6    32    1
     9     7    11    1
    10     7    28   am
    11     7    33    1
    12     8    13    1
    13     8    27   am
    14     8    30    1
    15     9    31    1
    16    10    14    1
    17    11    14    1
    18    12    18    2
    19    13    34    1
    20    15    16    2
    21    15    17    1
    22    16    19    1
    23    17    20    2
    24    18    29    1
    25    19    34    2
    26    20    34    1
    27    21    23    2
    28    21    31    1
    29    22    24    1
    30    22    31    2
    31    23    35    1
    32    24    35    2
    33    25    26    1
    34    25    36    1
    35    26    36    1
    36    27    32    1
    37    28    35    1
    38    29    32    2
    39    30    33    1
    40    33    36    1
@<TRIPOS>SUBSTRUCTURE
     1 RES1        1 GROUP             0 ****  ****    0  
@<TRIPOS>MOLECULE
2X7D:A:EGB1369
    21    23     1     0     0
SMALL
NO_CHARGES
****
Generated from the CSD

@<TRIPOS>ATOM
     1 S1      21.4720  13.3930 107.9980   S.3       1 RES1   0.0000
     2 O2      16.0250  11.3180 113.8150   O.3       1 RES1   0.0000
     3 O3      15.2510  14.1750 109.8600   O.2       1 RES1   0.0000
     4 N4      19.4320  15.0950 108.1940   N.2       1 RES1   0.0000
     5 N5      19.0150  12.7910 108.8850   N.2       1 RES1   0.0000
     6 C6      17.1960  17.6300 110.4260   C.3       1 RES1   0.0000
     7 C7      16.0690  18.8140 108.5520   C.3       1 RES1   0.0000
     8 C8      18.7380  13.7110 113.3200   C.2       1 RES1   0.0000
     9 C9      17.8350  12.8700 113.9820   C.2       1 RES1   0.0000
    10 C10     18.7260  13.8270 111.9140   C.2       1 RES1   0.0000
    11 C11     16.9070  12.2810 111.8060   C.2       1 RES1   0.0000
    12 C12     15.4630  16.3980 109.0100   C.3       1 RES1   0.0000
    13 C13     17.7270  16.9180 108.0960   C.3       1 RES1   0.0000
    14 C14     19.9560  13.8970 108.8300   C.3       1 RES1   0.0000
    15 C15     16.9240  12.1530 113.2100   C.2       1 RES1   0.0000
    16 C16     16.0180  15.0050 109.3820   C.2       1 RES1   0.0000
    17 C17     18.1810  15.4750 108.5160   C.2       1 RES1   0.0000
    18 C18     17.7590  13.1770 109.5730   C.3       1 RES1   0.0000
    19 C19     17.8290  13.0820 111.1240   C.2       1 RES1   0.0000
    20 C20     17.3160  14.5780 109.1180   C.2       1 RES1   0.0000
    21 C21     16.6090  17.4510 109.0200   C.3       1 RES1   0.0000
@<TRIPOS>BOND
     1     1    14    1
     2     2    15    1
     3     3    16    2
     4     4    14    1
     5     4    17    1
     6     5    14    1
     7     5    18    1
     8     6    21    1
     9     7    21    1
    10     8     9    2
    11     8    10    1
    12     9    15    1
    13    10    19    2
    14    11    15    2
    15    11    19    1
    16    12    16    1
    17    12    21    1
    18    13    17    1
    19    13    21    1
    20    16    20    1
    21    17    20    2
    22    18    19    1
    23    18    20    1
@<TRIPOS>SUBSTRUCTURE
     1 RES1        1 GROUP             0 ****  ****    0  
@<TRIPOS>MOLECULE
2X7C:A:KZ91365
    19    21     1     0     0
SMALL
NO_CHARGES
****
Generated from the CSD

@<TRIPOS>ATOM
     1 S1      21.6200  13.3480 107.9640   S.2       1 RES1   0.0000
     2 O2      16.0710  11.2940 113.7120   O.3       1 RES1   0.0000
     3 O3      15.3710  14.4730 109.9930   O.2       1 RES1   0.0000
     4 N4      19.6850  15.1280 108.3610   N.am      1 RES1   0.0000
     5 N5      19.1780  12.8910 109.1170   N.am      1 RES1   0.0000
     6 C6      17.0140  17.6460 109.3590   C.3       1 RES1   0.0000
     7 C7      18.9490  13.6150 113.3630   C.2       1 RES1   0.0000
     8 C8      17.9880  12.7680 113.9300   C.2       1 RES1   0.0000
     9 C9      15.7910  16.7120 109.3300   C.3       1 RES1   0.0000
    10 C10     18.1450  17.1040 108.4410   C.3       1 RES1   0.0000
    11 C11     18.9030  13.8160 111.9640   C.2       1 RES1   0.0000
    12 C12     16.9750  12.3460 111.7660   C.2       1 RES1   0.0000
    13 C13     20.0560  13.7980 108.5270   C.2       1 RES1   0.0000
    14 C14     17.0150  12.1310 113.1510   C.2       1 RES1   0.0000
    15 C15     16.2300  15.2620 109.5950   C.2       1 RES1   0.0000
    16 C16     18.4040  15.6060 108.6610   C.2       1 RES1   0.0000
    17 C17     17.9180  13.1790 111.1740   C.2       1 RES1   0.0000
    18 C18     17.8680  13.3140 109.6390   C.3       1 RES1   0.0000
    19 C19     17.4840  14.7530 109.2450   C.2       1 RES1   0.0000
@<TRIPOS>BOND
     1     1    13    2
     2     2    14    1
     3     3    15    2
     4     4    13   am
     5     4    16    1
     6     5    13   am
     7     5    18    1
     8     6     9    1
     9     6    10    1
    10     7     8    2
    11     7    11    1
    12     8    14    1
    13     9    15    1
    14    10    16    1
    15    11    17    2
    16    12    14    2
    17    12    17    1
    18    15    19    1
    19    16    19    2
    20    17    18    1
    21    18    19    1
@<TRIPOS>SUBSTRUCTURE
     1 RES1        1 GROUP             0 ****  ****    0  
@<TRIPOS>MOLECULE
4BBG:A:V021370
    26    28     1     0     0
SMALL
NO_CHARGES
****
Generated from the CSD

@<TRIPOS>ATOM
     1 S1      16.8620  13.8700 108.7160   S.3       1 RES1   0.0000
     2 O2      16.3110  11.6400 112.7240   O.3       1 RES1   0.0000
     3 N3      16.1480  13.0160 105.1920   N.3       1 RES1   0.0000
     4 C4      20.5830  16.4480 105.2270   C.3       1 RES1   0.0000
     5 C5      17.4510  14.0050 106.9860   C.3       1 RES1   0.0000
     6 C6      16.3680  14.2490 105.9320   C.3       1 RES1   0.0000
     7 C7      21.6250  16.1460 106.2400   C.3       1 RES1   0.0000
     8 C8      16.2750  18.4880 109.7340   C.2       1 RES1   0.0000
     9 C9      15.6160  17.4000 109.2280   C.2       1 RES1   0.0000
    10 C10     17.5590  18.3660 110.2080   C.2       1 RES1   0.0000
    11 C11     19.1480  13.7980 113.0700   C.2       1 RES1   0.0000
    12 C12     21.2820  13.1170 108.3290   C.2       1 RES1   0.0000
    13 C13     18.1910  12.8630 113.3730   C.2       1 RES1   0.0000
    14 C14     21.7480  14.0290 107.4340   C.2       1 RES1   0.0000
    15 C15     16.2610  16.1950 109.1920   C.2       1 RES1   0.0000
    16 C16     18.2010  17.1560 110.1720   C.2       1 RES1   0.0000
    17 C17     19.1600  14.4090 111.8480   C.2       1 RES1   0.0000
    18 C18     20.1180  13.3770 108.9810   C.2       1 RES1   0.0000
    19 C19     17.2580  13.1590 111.2200   C.2       1 RES1   0.0000
    20 C20     19.8970  15.4540 107.8650   C.2       1 RES1   0.0000
    21 C21     17.2500  12.5460 112.4410   C.2       1 RES1   0.0000
    22 C22     21.0650  15.1830 107.2160   C.2       1 RES1   0.0000
    23 C23     17.5460  16.0800 109.6480   C.2       1 RES1   0.0000
    24 C24     18.2120  14.0820 110.9240   C.2       1 RES1   0.0000
    25 C25     19.4320  14.5360 108.7660   C.2       1 RES1   0.0000
    26 C26     18.1610  14.7190 109.5750   C.3       1 RES1   0.0000
@<TRIPOS>BOND
     1     1     5    1
     2     1    26    1
     3     2    21    1
     4     3     6    1
     5     4     7    1
     6     5     6    1
     7     7    22    1
     8     8     9    2
     9     8    10    1
    10     9    15    1
    11    10    16    2
    12    11    13    2
    13    11    17    1
    14    12    14    2
    15    12    18    1
    16    13    21    1
    17    14    22    1
    18    15    23    2
    19    16    23    1
    20    17    24    2
    21    18    25    2
    22    19    21    2
    23    19    24    1
    24    20    22    2
    25    20    25    1
    26    23    26    1
    27    24    26    1
    28    25    26    1
@<TRIPOS>SUBSTRUCTURE
     1 RES1        1 GROUP             0 ****  ****    0  
@<TRIPOS>MOLECULE
2X7E:A:X7E1365
    26    28     1     0     0
SMALL
NO_CHARGES
****
Generated from the CSD

@<TRIPOS>ATOM
     1 S1      14.2260  14.5810 108.9290   S.2       1 RES1   0.0000
     2 F2      21.5650  17.0930 104.0470   F         1 RES1   0.0000
     3 F3      23.4020  16.2020 105.6380   F         1 RES1   0.0000
     4 O4      16.1310  11.6520 113.5630   O.3       1 RES1   0.0000
     5 O5      20.4970  13.1160 108.7180   O.3       1 RES1   0.0000
     6 N6      16.4510  13.2260 108.8180   N.am      1 RES1   0.0000
     7 N7      16.5270  15.6160 109.2330   N.am      1 RES1   0.0000
     8 C8      15.7380  16.8670 109.4940   C.3       1 RES1   0.0000
     9 C9      18.6050  17.0640 109.3030   C.3       1 RES1   0.0000
    10 C10     18.9840  13.7580 112.8730   C.2       1 RES1   0.0000
    11 C11     18.0690  13.0220 113.6280   C.2       1 RES1   0.0000
    12 C12     19.7990  16.2510 105.3950   C.2       1 RES1   0.0000
    13 C13     18.8940  13.7990 111.4700   C.2       1 RES1   0.0000
    14 C14     19.4810  15.5550 106.5560   C.2       1 RES1   0.0000
    15 C15     21.8080  15.3090 107.1600   C.2       1 RES1   0.0000
    16 C16     16.9920  12.4490 111.5010   C.2       1 RES1   0.0000
    17 C17     15.8620  14.4400 109.0570   C.2       1 RES1   0.0000
    18 C18     21.1430  16.4380 105.1350   C.2       1 RES1   0.0000
    19 C19     22.1290  15.9760 105.9900   C.2       1 RES1   0.0000
    20 C20     17.0790  12.3700 112.8960   C.2       1 RES1   0.0000
    21 C21     20.0580  14.4320 108.7510   C.3       1 RES1   0.0000
    22 C22     17.8590  13.1940 109.1220   C.3       1 RES1   0.0000
    23 C23     17.9010  15.6810 109.1340   C.2       1 RES1   0.0000
    24 C24     20.4560  15.1030 107.4420   C.2       1 RES1   0.0000
    25 C25     17.9200  13.1320 110.7240   C.2       1 RES1   0.0000
    26 C26     18.5500  14.4880 108.8440   C.2       1 RES1   0.0000
@<TRIPOS>BOND
     1     1    17    2
     2     2    18    1
     3     3    19    1
     4     4    20    1
     5     5    21    1
     6     6    17   am
     7     6    22    1
     8     7     8    1
     9     7    17   am
    10     7    23    1
    11     9    23    1
    12    10    11    2
    13    10    13    1
    14    11    20    1
    15    12    14    2
    16    12    18    1
    17    13    25    2
    18    14    24    1
    19    15    19    1
    20    15    24    2
    21    16    20    2
    22    16    25    1
    23    18    19    2
    24    21    24    1
    25    21    26    1
    26    22    25    1
    27    22    26    1
    28    23    26    2
@<TRIPOS>SUBSTRUCTURE
     1 RES1        1 GROUP             0 ****  ****    0  
@<TRIPOS>MOLECULE
4AS7:A:6LX1375
    37    40     1     0     0
SMALL
NO_CHARGES
****
Generated from the CSD

@<TRIPOS>ATOM
     1 Cl1     21.5790  17.7670 103.3790   Cl        1 RES1   0.0000
     2 O2      14.4250  14.8380 108.9310   O.2       1 RES1   0.0000
     3 O3      21.4960  13.1300 108.0720   O.2       1 RES1   0.0000
     4 O4      19.1370  16.4080 107.5650   O.3       1 RES1   0.0000
     5 N5      16.0060  13.2020 105.2100   N.3       1 RES1   0.0000
     6 N6      16.5020  15.7900 108.8740   N.am      1 RES1   0.0000
     7 C7      19.4370  17.8420 110.5060   C.3       1 RES1   0.0000
     8 C8      17.0780  18.5110 109.7940   C.3       1 RES1   0.0000
     9 C9      15.9310  12.8910 114.7880   C.3       1 RES1   0.0000
    10 C10     15.6210  14.0910 106.3310   C.3       1 RES1   0.0000
    11 C11     16.3120  16.3180 107.4910   C.3       1 RES1   0.0000
    12 C12     16.5770  15.3000 106.3490   C.3       1 RES1   0.0000
    13 C13     21.2710  15.3580 113.6100   C.2       1 RES1   0.0000
    14 C14     19.9250  15.0130 113.6200   C.2       1 RES1   0.0000
    15 C15     22.0160  15.0990 112.4640   C.2       1 RES1   0.0000
    16 C16     22.1440  15.5440 104.8680   C.2       1 RES1   0.0000
    17 C17     19.3400  14.4330 112.4960   C.2       1 RES1   0.0000
    18 C18     21.4360  14.5210 111.3360   C.2       1 RES1   0.0000
    19 C19     15.5680  14.8550 113.2060   C.2       1 RES1   0.0000
    20 C20     15.9820  12.6760 112.2720   C.2       1 RES1   0.0000
    21 C21     15.4930  15.3940 111.9370   C.2       1 RES1   0.0000
    22 C22     15.8900  13.1940 110.9970   C.2       1 RES1   0.0000
    23 C23     21.9410  14.6890 105.9470   C.2       1 RES1   0.0000
    24 C24     20.3130  16.9360 105.6330   C.2       1 RES1   0.0000
    25 C25     19.4390  13.5550 110.0860   C.3       1 RES1   0.0000
    26 C26     21.3220  16.6780 104.7120   C.2       1 RES1   0.0000
    27 C27     15.5210  15.0780 109.4480   C.2       1 RES1   0.0000
    28 C28     20.7440  14.1070 107.9370   C.2       1 RES1   0.0000
    29 C29     20.1290  16.0810 106.7180   C.2       1 RES1   0.0000
    30 C30     18.9740  15.5870 108.6120   C.2       1 RES1   0.0000
    31 C31     17.9940  17.3930 110.2860   C.3       1 RES1   0.0000
    32 C32     15.8130  13.4980 113.3780   C.2       1 RES1   0.0000
    33 C33     17.8170  16.0110 109.5330   C.3       1 RES1   0.0000
    34 C34     20.0950  14.1900 111.3420   C.2       1 RES1   0.0000
    35 C35     15.6860  14.5510 110.8440   C.2       1 RES1   0.0000
    36 C36     20.9410  14.9570 106.8580   C.2       1 RES1   0.0000
    37 C37     19.7250  14.4200 108.8570   C.2       1 RES1   0.0000
@<TRIPOS>BOND
     1     1    26    1
     2     2    27    2
     3     3    28    2
     4     4    29    1
     5     4    30    1
     6     5    10    1
     7     6    11    1
     8     6    27   am
     9     6    33    1
    10     7    31    1
    11     8    31    1
    12     9    32    1
    13    10    12    1
    14    11    12    1
    15    13    14    2
    16    13    15    1
    17    14    17    1
    18    15    18    2
    19    16    23    1
    20    16    26    2
    21    17    34    2
    22    18    34    1
    23    19    21    2
    24    19    32    1
    25    20    22    1
    26    20    32    2
    27    21    35    1
    28    22    35    2
    29    23    36    2
    30    24    26    1
    31    24    29    2
    32    25    34    1
    33    25    37    1
    34    27    35    1
    35    28    36    1
    36    28    37    1
    37    29    36    1
    38    30    33    1
    39    30    37    2
    40    31    33    1
@<TRIPOS>SUBSTRUCTURE
     1 RES1        1 GROUP             0 ****  ****    0  
@<TRIPOS>MOLECULE
2IEH:A:MOY602
    24    26     1     0     0
SMALL
NO_CHARGES
****
Generated from the CSD

@<TRIPOS>ATOM
     1 S1      14.5050  14.4150 108.9760   S.2       1 RES1   0.0000
     2 O2      16.5040  11.8160 113.7730   O.3       1 RES1   0.0000
     3 O3      21.0450  13.4700 108.5820   O.2       1 RES1   0.0000
     4 N4      16.9240  13.2630 108.9220   N.am      1 RES1   0.0000
     5 N5      16.8720  15.5830 109.3770   N.am      1 RES1   0.0000
     6 C6      16.2360  16.6610 110.1790   C.3       1 RES1   0.0000
     7 C7      18.6020  17.1940 108.5630   C.3       1 RES1   0.0000
     8 C8      21.8660  16.7810 104.8030   C.2       1 RES1   0.0000
     9 C9      22.7620  16.3120 105.8250   C.2       1 RES1   0.0000
    10 C10     20.5240  16.4660 104.8720   C.2       1 RES1   0.0000
    11 C11     19.3020  14.1500 113.1740   C.2       1 RES1   0.0000
    12 C12     18.3600  13.3720 113.8520   C.2       1 RES1   0.0000
    13 C13     22.2610  15.5180 106.9070   C.2       1 RES1   0.0000
    14 C14     20.0110  15.6830 105.9270   C.2       1 RES1   0.0000
    15 C15     19.3460  14.1650 111.7500   C.2       1 RES1   0.0000
    16 C16     17.4650  12.5840 111.6920   C.2       1 RES1   0.0000
    17 C17     16.1500  14.4550 109.1040   C.2       1 RES1   0.0000
    18 C18     17.4380  12.5840 113.1170   C.2       1 RES1   0.0000
    19 C19     20.3590  14.3750 108.1150   C.2       1 RES1   0.0000
    20 C20     18.2180  15.7620 108.8660   C.2       1 RES1   0.0000
    21 C21     18.3710  13.3240 109.3950   C.3       1 RES1   0.0000
    22 C22     20.8760  15.2060 106.9620   C.2       1 RES1   0.0000
    23 C23     18.4260  13.3820 110.9840   C.2       1 RES1   0.0000
    24 C24     18.9740  14.5800 108.6900   C.2       1 RES1   0.0000
@<TRIPOS>BOND
     1     1    17    2
     2     2    18    1
     3     3    19    2
     4     4    17   am
     5     4    21    1
     6     5     6    1
     7     5    17   am
     8     5    20    1
     9     7    20    1
    10     8     9    2
    11     8    10    1
    12     9    13    1
    13    10    14    2
    14    11    12    2
    15    11    15    1
    16    12    18    1
    17    13    22    2
    18    14    22    1
    19    15    23    2
    20    16    18    2
    21    16    23    1
    22    19    22    1
    23    19    24    1
    24    20    24    2
    25    21    23    1
    26    21    24    1
@<TRIPOS>SUBSTRUCTURE
     1 RES1        1 GROUP             0 ****  ****    0  
@<TRIPOS>MOLECULE
2Q2Y:A:MKR604
    35    39     1     0     0
SMALL
NO_CHARGES
****
Generated from the CSD

@<TRIPOS>ATOM
     1 F1      22.3470  17.4730 105.0030   F         1 RES1   0.0000
     2 O2       9.9440  17.3350 104.6120   O.2       1 RES1   0.0000
     3 O3      15.7810  16.9140 110.8850   O.2       1 RES1   0.0000
     4 O4      20.7830  13.2330 108.0360   O.3       1 RES1   0.0000
     5 N5      18.5670  16.3480 108.6390   N.2       1 RES1   0.0000
     6 N6      19.1150  15.3750 108.0520   N.pl3     1 RES1   0.0000
     7 N7      13.9030  14.9430 105.9150   N.3       1 RES1   0.0000
     8 N8      11.4210  15.6880 105.0410   N.am      1 RES1   0.0000
     9 C9       9.5860  15.0420 103.6140   C.3       1 RES1   0.0000
    10 C10     17.4380  18.5230 110.3090   C.3       1 RES1   0.0000
    11 C11     19.6620  13.2670 108.8880   C.2       1 RES1   0.0000
    12 C12     13.9500  16.2260 105.2120   C.3       1 RES1   0.0000
    13 C13     13.1790  13.8640 105.2710   C.3       1 RES1   0.0000
    14 C14     14.3290  14.9400 107.3410   C.3       1 RES1   0.0000
    15 C15     12.4900  16.7360 105.4140   C.3       1 RES1   0.0000
    16 C16     11.6520  14.2080 105.3360   C.3       1 RES1   0.0000
    17 C17     18.2650  13.2310 113.6340   C.2       1 RES1   0.0000
    18 C18     19.0310  14.2590 113.0980   C.2       1 RES1   0.0000
    19 C19     17.2300  12.5550 112.9220   C.2       1 RES1   0.0000
    20 C20     15.6540  14.1330 107.6240   C.3       1 RES1   0.0000
    21 C21     22.6650  15.3280 105.7810   C.2       1 RES1   0.0000
    22 C22     22.3220  14.2140 106.6080   C.2       1 RES1   0.0000
    23 C23     18.6850  14.5980 111.7600   C.2       1 RES1   0.0000
    24 C24     16.9350  12.9470 111.5540   C.2       1 RES1   0.0000
    25 C25     20.6380  16.6300 106.4660   C.2       1 RES1   0.0000
    26 C26     16.0290  14.2440 109.1000   C.3       1 RES1   0.0000
    27 C27     10.2870  16.1590 104.4660   C.2       1 RES1   0.0000
    28 C28     21.8740  16.4810 105.7400   C.2       1 RES1   0.0000
    29 C29     16.8570  17.1550 110.3110   C.2       1 RES1   0.0000
    30 C30     21.1490  14.3440 107.3000   C.2       1 RES1   0.0000
    31 C31     17.6090  16.0850 109.5210   C.2       1 RES1   0.0000
    32 C32     20.3090  15.4760 107.2760   C.2       1 RES1   0.0000
    33 C33     18.4870  14.1110 108.4350   C.3       1 RES1   0.0000
    34 C34     17.6700  13.9650 110.9820   C.2       1 RES1   0.0000
    35 C35     17.4700  14.4940 109.5510   C.3       1 RES1   0.0000
@<TRIPOS>BOND
     1     1    28    1
     2     2    27    2
     3     3    29    2
     4     4    11    1
     5     4    30    1
     6     5     6    1
     7     5    31    2
     8     6    32    1
     9     6    33    1
    10     7    12    1
    11     7    13    1
    12     7    14    1
    13     8    15    1
    14     8    16    1
    15     8    27   am
    16     9    27    1
    17    10    29    1
    18    11    33    1
    19    12    15    1
    20    13    16    1
    21    14    20    1
    22    17    18    2
    23    17    19    1
    24    18    23    1
    25    19    24    2
    26    20    26    1
    27    21    22    1
    28    21    28    2
    29    22    30    2
    30    23    34    2
    31    24    34    1
    32    25    28    1
    33    25    32    2
    34    26    35    1
    35    29    31    1
    36    30    32    1
    37    31    35    1
    38    33    35    1
    39    34    35    1
@<TRIPOS>SUBSTRUCTURE
     1 RES1        1 GROUP             0 ****  ****    0  
@<TRIPOS>MOLECULE
2X2R:A:X2O1367
    24    25     1     0     0
SMALL
NO_CHARGES
****
Generated from the CSD

@<TRIPOS>ATOM
     1 S1      17.0750  13.7650 108.0880   S.3       1 RES1   0.0000
     2 O2      15.6260  16.0170 104.3520   O.co2     1 RES1   0.0000
     3 O3      16.3300  14.2950 103.1330   O.co2     1 RES1   0.0000
     4 N4      16.6070  12.6340 105.1970   N.3       1 RES1   0.0000
     5 C5      15.6510  17.7400 109.8240   C.3       1 RES1   0.0000
     6 C6      18.4160  17.2740 109.9640   C.3       1 RES1   0.0000
     7 C7      17.0120  14.6920 106.5100   C.3       1 RES1   0.0000
     8 C8      16.1640  16.3000 109.8030   C.3       1 RES1   0.0000
     9 C9      21.9100  14.7750 107.0520   C.2       1 RES1   0.0000
    10 C10     18.2750  13.1620 113.1030   C.2       1 RES1   0.0000
    11 C11     21.0850  15.8930 106.9340   C.2       1 RES1   0.0000
    12 C12     21.5310  13.6900 107.8420   C.2       1 RES1   0.0000
    13 C13     17.2100  12.8740 112.2530   C.2       1 RES1   0.0000
    14 C14     19.3010  13.9970 112.6650   C.2       1 RES1   0.0000
    15 C15     19.8700  15.9080 107.6050   C.2       1 RES1   0.0000
    16 C16     20.3120  13.7050 108.5110   C.2       1 RES1   0.0000
    17 C17     17.1810  13.4170 110.9730   C.2       1 RES1   0.0000
    18 C18     19.2720  14.5420 111.3820   C.2       1 RES1   0.0000
    19 C19     16.0080  14.8380 104.2130   C.2       1 RES1   0.0000
    20 C20     16.0980  13.9920 105.4900   C.3       1 RES1   0.0000
    21 C21     17.5440  16.2810 109.1770   C.3       1 RES1   0.0000
    22 C22     19.4920  14.8310 108.4020   C.2       1 RES1   0.0000
    23 C23     18.2080  14.2540 110.5290   C.2       1 RES1   0.0000
    24 C24     18.1370  14.8510 109.1100   C.3       1 RES1   0.0000
@<TRIPOS>BOND
     1     1     7    1
     2     1    24    1
     3     2    19    2
     4     3    19    1
     5     4    20    1
     6     5     8    1
     7     6    21    1
     8     7    20    1
     9     8    21    1
    10     9    11    2
    11     9    12    1
    12    10    13    2
    13    10    14    1
    14    11    15    1
    15    12    16    2
    16    13    17    1
    17    14    18    2
    18    15    22    2
    19    16    22    1
    20    17    23    2
    21    18    23    1
    22    19    20    1
    23    21    24    1
    24    22    24    1
    25    23    24    1
@<TRIPOS>SUBSTRUCTURE
     1 RES1        1 GROUP             0 ****  ****    0  
@<TRIPOS>MOLECULE
1YRS:A:L47604
    22    24     1     0     0
SMALL
NO_CHARGES
****
Generated from the CSD

@<TRIPOS>ATOM
     1 Cl1     21.6080  13.0640 108.1050   Cl        1 RES1   0.0000
     2 O2      16.2830  17.2370 109.4030   O.2       1 RES1   0.0000
     3 O3      16.1740  11.4930 113.6720   O.3       1 RES1   0.0000
     4 N4      18.2710  15.7930 108.2660   N.2       1 RES1   0.0000
     5 N5      17.4770  15.3310 109.1660   N.am      1 RES1   0.0000
     6 C6      15.1470  15.1530 109.8290   C.3       1 RES1   0.0000
     7 C7      22.6700  15.7500 105.2930   C.2       1 RES1   0.0000
     8 C8      21.4690  16.5720 105.2200   C.2       1 RES1   0.0000
     9 C9      19.1280  13.7930 113.3800   C.2       1 RES1   0.0000
    10 C10     22.7880  14.6640 106.2260   C.2       1 RES1   0.0000
    11 C11     18.1190  12.9180 113.9260   C.2       1 RES1   0.0000
    12 C12     19.0250  14.1120 111.9760   C.2       1 RES1   0.0000
    13 C13     20.3340  16.3370 106.0900   C.2       1 RES1   0.0000
    14 C14     16.9490  12.6980 111.6970   C.2       1 RES1   0.0000
    15 C15     18.8900  13.7440 108.7110   C.3       1 RES1   0.0000
    16 C16     16.3600  16.0120 109.4860   C.2       1 RES1   0.0000
    17 C17     21.6470  14.4310 107.0750   C.2       1 RES1   0.0000
    18 C18     17.0670  12.3700 113.0970   C.2       1 RES1   0.0000
    19 C19     19.3170  14.9890 107.9750   C.2       1 RES1   0.0000
    20 C20     17.9120  14.0520 109.7620   C.2       1 RES1   0.0000
    21 C21     17.9500  13.5970 111.1580   C.2       1 RES1   0.0000
    22 C22     20.4390  15.2520 107.0420   C.2       1 RES1   0.0000
@<TRIPOS>BOND
     1     1    17    1
     2     2    16    2
     3     3    18    1
     4     4     5    1
     5     4    19    2
     6     5    16   am
     7     5    20    1
     8     6    16    1
     9     7     8    2
    10     7    10    1
    11     8    13    1
    12     9    11    2
    13     9    12    1
    14    10    17    2
    15    11    18    1
    16    12    21    2
    17    13    22    2
    18    14    18    2
    19    14    21    1
    20    15    19    1
    21    15    20    1
    22    17    22    1
    23    19    22    1
    24    20    21    1
@<TRIPOS>SUBSTRUCTURE
     1 RES1        1 GROUP             0 ****  ****    0  
@<TRIPOS>MOLECULE
2PG2:A:K01604
    24    26     1     0     0
SMALL
NO_CHARGES
****
Generated from the CSD

@<TRIPOS>ATOM
     1 S1      18.4590  13.0680 113.4810   S.3       1 RES1   0.0000
     2 S2      21.1850  13.5810 108.2100   S.3       1 RES1   0.0000
     3 O3      20.1280  14.2670 111.2470   O.2       1 RES1   0.0000
     4 O4      17.8320  16.6260 106.7660   O.2       1 RES1   0.0000
     5 N5      18.9090  13.7270 109.6960   N.am      1 RES1   0.0000
     6 N6      16.9930  16.3350 108.4560   N.am      1 RES1   0.0000
     7 C7      18.1980  17.2110 110.0720   C.3       1 RES1   0.0000
     8 C8      14.9790  15.7680 109.4790   C.3       1 RES1   0.0000
     9 C9      17.0780  12.1300 113.9100   C.2       1 RES1   0.0000
    10 C10     17.4280  15.7350 109.5400   C.3       1 RES1   0.0000
    11 C11     15.6690  16.8520 108.6990   C.3       1 RES1   0.0000
    12 C12     16.4010  11.8000 112.7330   C.2       1 RES1   0.0000
    13 C13     22.6590  16.1210 105.4770   C.3       1 RES1   0.0000
    14 C14     21.3500  16.7820 105.0010   C.3       1 RES1   0.0000
    15 C15     16.9480  12.2450 111.5190   C.2       1 RES1   0.0000
    16 C16     22.4930  14.6410 105.9220   C.3       1 RES1   0.0000
    17 C17     19.9800  16.4820 105.6750   C.3       1 RES1   0.0000
    18 C18     19.6570  14.1920 108.6540   C.2       1 RES1   0.0000
    19 C19     19.1510  13.6620 110.9420   C.2       1 RES1   0.0000
    20 C20     17.9380  15.9370 107.6740   C.2       1 RES1   0.0000
    21 C21     18.1230  12.9830 111.7840   C.2       1 RES1   0.0000
    22 C22     21.3040  14.6740 106.8560   C.2       1 RES1   0.0000
    23 C23     20.1550  15.4550 106.7620   C.2       1 RES1   0.0000
    24 C24     19.2430  15.2100 107.8020   C.2       1 RES1   0.0000
@<TRIPOS>BOND
     1     1     9    1
     2     1    21    1
     3     2    18    1
     4     2    22    1
     5     3    19    2
     6     4    20    2
     7     5    18    1
     8     5    19   am
     9     6    10    1
    10     6    11    1
    11     6    20   am
    12     7    10    1
    13     8    11    1
    14     9    12    2
    15    12    15    1
    16    13    14    1
    17    13    16    1
    18    14    17    1
    19    15    21    2
    20    16    22    1
    21    17    23    1
    22    18    24    2
    23    19    21    1
    24    20    24    1
    25    22    23    2
    26    23    24    1
@<TRIPOS>SUBSTRUCTURE
     1 RES1        1 GROUP             0 ****  ****    0  
@<TRIPOS>MOLECULE
2G1Q:A:N9H604
    28    30     1     0     0
SMALL
NO_CHARGES
****
Generated from the CSD

@<TRIPOS>ATOM
     1 F1      22.1230  17.5760 104.5950   F         1 RES1   0.0000
     2 F2      21.6260  13.3250 107.7990   F         1 RES1   0.0000
     3 O3      15.9610  16.1680 110.5470   O.2       1 RES1   0.0000
     4 N4      15.7300  12.4970 105.5840   N.3       1 RES1   0.0000
     5 N5      18.8340  16.3230 108.5420   N.2       1 RES1   0.0000
     6 N6      16.9800  18.1300 109.9240   N.am      1 RES1   0.0000
     7 N7      17.9240  15.9400 109.5090   N.am      1 RES1   0.0000
     8 C8      14.9050  19.1800 109.0080   C.3       1 RES1   0.0000
     9 C9      15.5190  13.8770 106.0770   C.3       1 RES1   0.0000
    10 C10     15.8890  19.0990 110.1780   C.3       1 RES1   0.0000
    11 C11     16.5500  14.4170 107.1810   C.3       1 RES1   0.0000
    12 C12     18.1830  13.0190 113.8030   C.2       1 RES1   0.0000
    13 C13     17.2400  12.3530 112.8980   C.2       1 RES1   0.0000
    14 C14     18.9670  14.1540 113.3680   C.2       1 RES1   0.0000
    15 C15     22.9080  15.4790 105.2030   C.2       1 RES1   0.0000
    16 C16     22.7950  14.3480 106.0520   C.2       1 RES1   0.0000
    17 C17     17.0960  12.8510 111.5120   C.2       1 RES1   0.0000
    18 C18     18.8020  14.6350 111.9850   C.2       1 RES1   0.0000
    19 C19     20.8410  16.5490 106.2400   C.2       1 RES1   0.0000
    20 C20     16.6490  13.9220 108.6970   C.3       1 RES1   0.0000
    21 C21     19.1520  14.1110 108.8930   C.3       1 RES1   0.0000
    22 C22     16.8910  16.7720 110.0260   C.2       1 RES1   0.0000
    23 C23     21.9540  16.5370 105.3400   C.2       1 RES1   0.0000
    24 C24     21.6970  14.3500 106.9710   C.2       1 RES1   0.0000
    25 C25     19.5350  15.3000 108.0340   C.2       1 RES1   0.0000
    26 C26     20.6930  15.3910 107.0820   C.2       1 RES1   0.0000
    27 C27     17.8980  13.9820 111.0370   C.2       1 RES1   0.0000
    28 C28     17.8490  14.4790 109.5790   C.3       1 RES1   0.0000
@<TRIPOS>BOND
     1     1    23    1
     2     2    24    1
     3     3    22    2
     4     4     9    1
     5     5     7    1
     6     5    25    2
     7     6    10    1
     8     6    22   am
     9     7    22   am
    10     7    28    1
    11     8    10    1
    12     9    11    1
    13    11    20    1
    14    12    13    2
    15    12    14    1
    16    13    17    1
    17    14    18    2
    18    15    16    2
    19    15    23    1
    20    16    24    1
    21    17    27    2
    22    18    27    1
    23    19    23    2
    24    19    26    1
    25    20    28    1
    26    21    25    1
    27    21    28    1
    28    24    26    2
    29    25    26    1
    30    27    28    1
@<TRIPOS>SUBSTRUCTURE
     1 RES1        1 GROUP             0 ****  ****    0  
@<TRIPOS>MOLECULE
2UYI:A:K02604
    25    27     1     0     0
SMALL
NO_CHARGES
****
Generated from the CSD

@<TRIPOS>ATOM
     1 S1      18.3760  13.0110 113.6100   S.3       1 RES1   0.0000
     2 S2      21.2110  13.4290 108.4040   S.3       1 RES1   0.0000
     3 O3      20.0430  14.0860 111.3780   O.2       1 RES1   0.0000
     4 O4      17.1850  15.5440 106.8590   O.2       1 RES1   0.0000
     5 N5      18.8830  13.2600 109.6480   N.am      1 RES1   0.0000
     6 N6      17.3940  16.3110 108.8580   N.am      1 RES1   0.0000
     7 C7      15.2500  15.6550 109.7770   C.3       1 RES1   0.0000
     8 C8      18.4240  18.2100 109.9850   C.3       1 RES1   0.0000
     9 C9      21.3960  17.4610 104.0790   C.3       1 RES1   0.0000
    10 C10     16.9820  12.2060 114.1620   C.2       1 RES1   0.0000
    11 C11     15.9610  16.6890 108.9250   C.3       1 RES1   0.0000
    12 C12     18.2240  16.7310 110.0120   C.3       1 RES1   0.0000
    13 C13     16.2960  11.8180 113.0130   C.2       1 RES1   0.0000
    14 C14     16.8610  12.1730 111.7960   C.2       1 RES1   0.0000
    15 C15     22.7330  14.6490 106.4140   C.3       1 RES1   0.0000
    16 C16     22.6620  15.6890 105.2850   C.3       1 RES1   0.0000
    17 C17     20.2000  16.3820 105.8970   C.3       1 RES1   0.0000
    18 C18     19.6260  13.8800 108.6990   C.2       1 RES1   0.0000
    19 C19     19.0340  13.4850 110.9710   C.2       1 RES1   0.0000
    20 C20     17.8790  15.6010 107.8240   C.2       1 RES1   0.0000
    21 C21     18.0130  12.9060 111.9260   C.2       1 RES1   0.0000
    22 C22     21.4050  14.5640 107.1530   C.2       1 RES1   0.0000
    23 C23     21.5940  16.7930 105.4430   C.3       1 RES1   0.0000
    24 C24     20.2430  15.3010 106.9660   C.2       1 RES1   0.0000
    25 C25     19.2180  14.9070 107.8360   C.2       1 RES1   0.0000
@<TRIPOS>BOND
     1     1    10    1
     2     1    21    1
     3     2    18    1
     4     2    22    1
     5     3    19    2
     6     4    20    2
     7     5    18    1
     8     5    19   am
     9     6    11    1
    10     6    12    1
    11     6    20   am
    12     7    11    1
    13     8    12    1
    14     9    23    1
    15    10    13    2
    16    13    14    1
    17    14    21    2
    18    15    16    1
    19    15    22    1
    20    16    23    1
    21    17    23    1
    22    17    24    1
    23    18    25    2
    24    19    21    1
    25    20    25    1
    26    22    24    2
    27    24    25    1
@<TRIPOS>SUBSTRUCTURE
     1 RES1        1 GROUP             0 ****  ****    0  
@<TRIPOS>MOLECULE
2UYM:A:K03604
    26    28     1     0     0
SMALL
NO_CHARGES
****
Generated from the CSD

@<TRIPOS>ATOM
     1 S1      18.4310  13.2260 113.6060   S.3       1 RES1   0.0000
     2 S2      21.1130  13.4440 108.3140   S.3       1 RES1   0.0000
     3 O3      20.0560  14.0980 111.2030   O.2       1 RES1   0.0000
     4 O4      17.1290  15.6360 106.6430   O.2       1 RES1   0.0000
     5 N5      18.6310  13.6390 109.5500   N.am      1 RES1   0.0000
     6 N6      17.3190  16.5040 108.6520   N.am      1 RES1   0.0000
     7 C7      18.5240  18.3160 109.7540   C.3       1 RES1   0.0000
     8 C8      15.1060  16.5820 109.8020   C.3       1 RES1   0.0000
     9 C9      22.4350  17.5970 106.0480   C.3       1 RES1   0.0000
    10 C10     21.5560  17.4030 103.7920   C.3       1 RES1   0.0000
    11 C11     17.0060  12.2800 114.1000   C.2       1 RES1   0.0000
    12 C12     18.0340  16.8900 109.8630   C.3       1 RES1   0.0000
    13 C13     15.9120  16.9200 108.5690   C.3       1 RES1   0.0000
    14 C14     16.3720  11.8630 112.9280   C.2       1 RES1   0.0000
    15 C15     16.9450  12.2390 111.7080   C.2       1 RES1   0.0000
    16 C16     22.6680  14.5400 106.2170   C.3       1 RES1   0.0000
    17 C17     22.5070  15.3590 104.9160   C.3       1 RES1   0.0000
    18 C18     20.2520  16.3870 105.6110   C.3       1 RES1   0.0000
    19 C19     19.4720  14.0790 108.5600   C.2       1 RES1   0.0000
    20 C20     19.0050  13.6240 110.8420   C.2       1 RES1   0.0000
    21 C21     17.8280  15.7870 107.6380   C.2       1 RES1   0.0000
    22 C22     18.0930  13.0030 111.8560   C.2       1 RES1   0.0000
    23 C23     21.3470  14.5640 106.9480   C.2       1 RES1   0.0000
    24 C24     20.2220  15.3620 106.7280   C.2       1 RES1   0.0000
    25 C25     19.1670  15.0950 107.6530   C.2       1 RES1   0.0000
    26 C26     21.6930  16.6560 105.1030   C.3       1 RES1   0.0000
@<TRIPOS>BOND
     1     1    11    1
     2     1    22    1
     3     2    19    1
     4     2    23    1
     5     3    20    2
     6     4    21    2
     7     5    19    1
     8     5    20   am
     9     6    12    1
    10     6    13    1
    11     6    21   am
    12     7    12    1
    13     8    13    1
    14     9    26    1
    15    10    26    1
    16    11    14    2
    17    14    15    1
    18    15    22    2
    19    16    17    1
    20    16    23    1
    21    17    26    1
    22    18    24    1
    23    18    26    1
    24    19    25    2
    25    20    22    1
    26    21    25    1
    27    23    24    2
    28    24    25    1
@<TRIPOS>SUBSTRUCTURE
     1 RES1        1 GROUP             0 ****  ****    0  
@<TRIPOS>MOLECULE
4A50:A:DQ61367
    27    29     1     0     0
SMALL
NO_CHARGES
****
Generated from the CSD

@<TRIPOS>ATOM
     1 O1      16.0150  16.0420 104.2690   O.co2     1 RES1   0.0000
     2 O2      16.8770  14.1380 103.4580   O.co2     1 RES1   0.0000
     3 N3      16.3580  12.6730 105.7120   N.3       1 RES1   0.0000
     4 C4      21.8010  16.4030 105.9950   C.3       1 RES1   0.0000
     5 C5      16.7580  18.7270 110.2440   C.2       1 RES1   0.0000
     6 C6      17.9120  12.6840 112.8360   C.2       1 RES1   0.0000
     7 C7      15.8360  17.7620 109.8470   C.2       1 RES1   0.0000
     8 C8      18.1170  18.4180 110.2570   C.2       1 RES1   0.0000
     9 C9      18.9380  13.5910 112.6040   C.2       1 RES1   0.0000
    10 C10     16.9390  12.4540 111.8640   C.2       1 RES1   0.0000
    11 C11     21.4690  13.2290 108.0570   C.2       1 RES1   0.0000
    12 C12     21.9830  14.1910 107.1910   C.2       1 RES1   0.0000
    13 C13     16.2880  16.4980 109.4700   C.2       1 RES1   0.0000
    14 C14     18.5630  17.1480 109.8870   C.2       1 RES1   0.0000
    15 C15     18.9800  14.2760 111.3930   C.2       1 RES1   0.0000
    16 C16     16.9860  13.1300 110.6480   C.2       1 RES1   0.0000
    17 C17     20.2160  13.4240 108.6450   C.2       1 RES1   0.0000
    18 C18     17.3000  14.6420 106.6960   C.3       1 RES1   0.0000
    19 C19     17.0760  14.1460 108.1200   C.3       1 RES1   0.0000
    20 C20     19.9980  15.5490 107.5360   C.2       1 RES1   0.0000
    21 C21     16.3650  14.8290 104.3770   C.2       1 RES1   0.0000
    22 C22     16.2070  14.1380 105.7650   C.3       1 RES1   0.0000
    23 C23     21.2420  15.3470 106.9420   C.2       1 RES1   0.0000
    24 C24     17.6500  16.1900 109.4620   C.2       1 RES1   0.0000
    25 C25     18.0250  14.0250 110.4110   C.2       1 RES1   0.0000
    26 C26     19.4840  14.5970 108.4130   C.2       1 RES1   0.0000
    27 C27     18.0960  14.7690 109.0790   C.3       1 RES1   0.0000
@<TRIPOS>BOND
     1     1    21    1
     2     2    21    2
     3     3    22    1
     4     4    23    1
     5     5     7    2
     6     5     8    1
     7     6     9    2
     8     6    10    1
     9     7    13    1
    10     8    14    2
    11     9    15    1
    12    10    16    2
    13    11    12    2
    14    11    17    1
    15    12    23    1
    16    13    24    2
    17    14    24    1
    18    15    25    2
    19    16    25    1
    20    17    26    2
    21    18    19    1
    22    18    22    1
    23    19    27    1
    24    20    23    2
    25    20    26    1
    26    21    22    1
    27    24    27    1
    28    25    27    1
    29    26    27    1
@<TRIPOS>SUBSTRUCTURE
     1 RES1        1 GROUP             0 ****  ****    0  
@<TRIPOS>MOLECULE
4A51:A:DQ8801
    26    28     1     0     0
SMALL
NO_CHARGES
****
Generated from the CSD

@<TRIPOS>ATOM
     1 S1      16.8010  13.6710 108.4590   S.3       1 RES1   0.0000
     2 O2      19.6890  16.8530 105.4500   O.2       1 RES1   0.0000
     3 N3      16.0410  12.5770 105.5350   N.3       1 RES1   0.0000
     4 C4      21.9520  16.3950 104.9430   C.3       1 RES1   0.0000
     5 C5      16.8010  14.5420 106.8110   C.3       1 RES1   0.0000
     6 C6      15.7800  14.0080 105.7890   C.3       1 RES1   0.0000
     7 C7      16.1550  18.4330 110.0140   C.2       1 RES1   0.0000
     8 C8      18.1700  12.8840 113.4950   C.2       1 RES1   0.0000
     9 C9      17.4890  18.2580 110.3720   C.2       1 RES1   0.0000
    10 C10     15.4170  17.3880 109.4930   C.2       1 RES1   0.0000
    11 C11     19.2030  13.6730 113.0120   C.2       1 RES1   0.0000
    12 C12     17.0840  12.6470 112.6720   C.2       1 RES1   0.0000
    13 C13     21.4620  13.5610 108.3440   C.2       1 RES1   0.0000
    14 C14     21.6330  14.3890 107.2490   C.2       1 RES1   0.0000
    15 C15     18.1020  17.0280 110.2110   C.2       1 RES1   0.0000
    16 C16     16.0440  16.1660 109.3430   C.2       1 RES1   0.0000
    17 C17     19.1620  14.2350 111.7340   C.2       1 RES1   0.0000
    18 C18     17.0500  13.2010 111.3960   C.2       1 RES1   0.0000
    19 C19     20.2880  13.6190 109.0800   C.2       1 RES1   0.0000
    20 C20     19.4560  15.3220 107.6520   C.2       1 RES1   0.0000
    21 C21     20.6980  16.2350 105.7570   C.2       1 RES1   0.0000
    22 C22     20.6060  15.2520 106.9020   C.2       1 RES1   0.0000
    23 C23     17.3810  15.9770 109.6840   C.2       1 RES1   0.0000
    24 C24     18.0860  13.9880 110.9090   C.2       1 RES1   0.0000
    25 C25     19.2980  14.5180 108.7470   C.2       1 RES1   0.0000
    26 C26     17.9970  14.5920 109.5090   C.3       1 RES1   0.0000
@<TRIPOS>BOND
     1     1     5    1
     2     1    26    1
     3     2    21    2
     4     3     6    1
     5     4    21    1
     6     5     6    1
     7     7     9    2
     8     7    10    1
     9     8    11    2
    10     8    12    1
    11     9    15    1
    12    10    16    2
    13    11    17    1
    14    12    18    2
    15    13    14    2
    16    13    19    1
    17    14    22    1
    18    15    23    2
    19    16    23    1
    20    17    24    2
    21    18    24    1
    22    19    25    2
    23    20    22    2
    24    20    25    1
    25    21    22    1
    26    23    26    1
    27    24    26    1
    28    25    26    1
@<TRIPOS>SUBSTRUCTURE
     1 RES1        1 GROUP             0 ****  ****    0  
@<TRIPOS>MOLECULE
2FME:A:3QC370
    24    26     1     0     0
SMALL
NO_CHARGES
****
Generated from the CSD

@<TRIPOS>ATOM
     1 O1      15.0480  16.2010 109.2770   O.2       1 RES1   0.0000
     2 O2      16.2660  11.4680 113.4920   O.3       1 RES1   0.0000
     3 N3      16.7150  17.7080 109.3430   N.am      1 RES1   0.0000
     4 N4      17.0410  15.5000 108.5330   N.am      1 RES1   0.0000
     5 C5      18.1100  18.1150 109.5920   C.3       1 RES1   0.0000
     6 C6      15.6930  18.7490 109.4260   C.3       1 RES1   0.0000
     7 C7      22.7300  14.7180 106.1420   C.3       1 RES1   0.0000
     8 C8      20.3350  16.3230 105.9810   C.3       1 RES1   0.0000
     9 C9      16.7770  14.0730 108.6490   C.3       1 RES1   0.0000
    10 C10     18.0890  15.7530 107.5770   C.2       1 RES1   0.0000
    11 C11     19.0890  13.9180 113.0740   C.2       1 RES1   0.0000
    12 C12     18.1430  13.0150 113.6520   C.2       1 RES1   0.0000
    13 C13     19.0080  14.1010 111.6460   C.2       1 RES1   0.0000
    14 C14     21.6340  13.2570 107.9020   C.2       1 RES1   0.0000
    15 C15     20.4770  12.9040 108.6630   C.2       1 RES1   0.0000
    16 C16     17.0860  12.4840 111.4080   C.2       1 RES1   0.0000
    17 C17     16.2280  16.4610 109.0590   C.2       1 RES1   0.0000
    18 C18     17.1490  12.3150 112.8520   C.2       1 RES1   0.0000
    19 C19     21.5730  14.3800 107.0060   C.2       1 RES1   0.0000
    20 C20     18.0450  13.3880 110.8140   C.2       1 RES1   0.0000
    21 C21     20.3960  15.1770 106.8840   C.2       1 RES1   0.0000
    22 C22     18.0450  13.5640 109.3370   C.3       1 RES1   0.0000
    23 C23     19.2640  14.8460 107.6600   C.2       1 RES1   0.0000
    24 C24     19.2910  13.7100 108.5180   C.2       1 RES1   0.0000
@<TRIPOS>BOND
     1     1    17    2
     2     2    18    1
     3     3     5    1
     4     3     6    1
     5     3    17   am
     6     4     9    1
     7     4    10    1
     8     4    17   am
     9     7    19    1
    10     8    21    1
    11     9    22    1
    12    10    23    1
    13    11    12    2
    14    11    13    1
    15    12    18    1
    16    13    20    2
    17    14    15    1
    18    14    19    2
    19    15    24    2
    20    16    18    2
    21    16    20    1
    22    19    21    1
    23    20    22    1
    24    21    23    2
    25    22    24    1
    26    23    24    1
@<TRIPOS>SUBSTRUCTURE
     1 RES1        1 GROUP             0 ****  ****    0  
@<TRIPOS>MOLECULE
2FKY:A:N2T604
    29    32     1     0     0
SMALL
NO_CHARGES
****
Generated from the CSD

@<TRIPOS>ATOM
     1 F1      21.8120  17.4020 104.7320   F         1 RES1   0.0000
     2 F2      21.7660  12.9800 107.7960   F         1 RES1   0.0000
     3 O3      15.4000  14.6990 109.5950   O.2       1 RES1   0.0000
     4 N4      12.4210  18.1730 108.3160   N.2       1 RES1   0.0000
     5 N5      16.2840  16.8380 109.5550   N.am      1 RES1   0.0000
     6 N6      17.6000  15.0060 109.2400   N.am      1 RES1   0.0000
     7 C7      17.4500  17.6280 109.9440   C.3       1 RES1   0.0000
     8 C8      12.7150  18.2210 109.7810   C.3       1 RES1   0.0000
     9 C9      13.5680  18.5370 107.4630   C.3       1 RES1   0.0000
    10 C10     18.3180  15.4510 108.0130   C.3       1 RES1   0.0000
    11 C11     18.1890  12.7020 114.0870   C.2       1 RES1   0.0000
    12 C12     17.3010  12.0140 113.1510   C.2       1 RES1   0.0000
    13 C13     19.0930  13.7740 113.6830   C.2       1 RES1   0.0000
    14 C14     13.9070  17.3080 110.0770   C.3       1 RES1   0.0000
    15 C15     14.7340  17.5980 107.8000   C.3       1 RES1   0.0000
    16 C16     22.8950  15.4290 105.3020   C.2       1 RES1   0.0000
    17 C17     22.9440  14.2520 106.1120   C.2       1 RES1   0.0000
    18 C18     17.3140  12.4360 111.7640   C.2       1 RES1   0.0000
    19 C19     19.0720  14.1930 112.2800   C.2       1 RES1   0.0000
    20 C20     20.6840  16.1020 106.3130   C.2       1 RES1   0.0000
    21 C21     19.3500  13.4840 108.9450   C.3       1 RES1   0.0000
    22 C22     16.3500  15.4680 109.4810   C.2       1 RES1   0.0000
    23 C23     21.7970  16.3220 105.4480   C.2       1 RES1   0.0000
    24 C24     21.8280  14.0350 107.0060   C.2       1 RES1   0.0000
    25 C25     15.1490  17.6690 109.2610   C.3       1 RES1   0.0000
    26 C26     18.2710  13.9070 109.8980   C.2       1 RES1   0.0000
    27 C27     19.5370  14.5730 107.9700   C.3       1 RES1   0.0000
    28 C28     18.1980  13.5140 111.3320   C.2       1 RES1   0.0000
    29 C29     20.7010  14.8930 107.1100   C.2       1 RES1   0.0000
@<TRIPOS>BOND
     1     1    23    1
     2     2    24    1
     3     3    22    2
     4     4     8    1
     5     4     9    1
     6     5     7    1
     7     5    22   am
     8     5    25    1
     9     6    10    1
    10     6    22   am
    11     6    26    1
    12     8    14    1
    13     9    15    1
    14    10    27    1
    15    11    12    1
    16    11    13    1
    17    12    18    2
    18    13    19    2
    19    14    25    1
    20    15    25    1
    21    16    17    2
    22    16    23    1
    23    17    24    1
    24    18    28    1
    25    19    28    1
    26    20    23    2
    27    20    29    1
    28    21    26    1
    29    21    27    1
    30    24    29    2
    31    26    28    2
    32    27    29    1
@<TRIPOS>SUBSTRUCTURE
     1 RES1        1 GROUP             0 ****  ****    0  
@<TRIPOS>MOLECULE
2FL6:A:N5T604
    24    26     1     0     0
SMALL
NO_CHARGES
****
Generated from the CSD

@<TRIPOS>ATOM
     1 F1      21.6740  17.3070 104.7170   F         1 RES1   0.0000
     2 F2      21.7190  13.0790 107.9400   F         1 RES1   0.0000
     3 O3      16.8080  17.6310 109.7730   O.2       1 RES1   0.0000
     4 N4      15.3430  16.0160 109.6340   N.am      1 RES1   0.0000
     5 N5      17.5480  15.4970 109.3770   N.am      1 RES1   0.0000
     6 C6      14.5110  17.2400 109.6130   C.3       1 RES1   0.0000
     7 C7      14.8800  14.6310 109.5420   C.3       1 RES1   0.0000
     8 C8      18.5890  16.0110 108.4860   C.3       1 RES1   0.0000
     9 C9      17.8760  12.6510 113.8780   C.2       1 RES1   0.0000
    10 C10     16.9330  12.0750 112.9310   C.2       1 RES1   0.0000
    11 C11     18.8280  13.6690 113.5030   C.2       1 RES1   0.0000
    12 C12     22.7530  15.3270 105.3440   C.2       1 RES1   0.0000
    13 C13     22.7980  14.1960 106.1830   C.2       1 RES1   0.0000
    14 C14     16.9200  12.5690 111.5590   C.2       1 RES1   0.0000
    15 C15     18.8450  14.1360 112.1310   C.2       1 RES1   0.0000
    16 C16     20.5220  16.0970 106.2830   C.2       1 RES1   0.0000
    17 C17     18.8540  13.6180 108.7600   C.2       1 RES1   0.0000
    18 C18     16.5790  16.4250 109.6110   C.2       1 RES1   0.0000
    19 C19     21.6530  16.2360 105.4450   C.2       1 RES1   0.0000
    20 C20     21.6680  14.0690 107.0660   C.2       1 RES1   0.0000
    21 C21     17.9050  14.1480 109.8020   C.3       1 RES1   0.0000
    22 C22     19.3740  14.7970 108.0650   C.2       1 RES1   0.0000
    23 C23     17.8770  13.6100 111.1810   C.2       1 RES1   0.0000
    24 C24     20.5260  14.9590 107.1270   C.2       1 RES1   0.0000
@<TRIPOS>BOND
     1     1    19    1
     2     2    20    1
     3     3    18    2
     4     4     6    1
     5     4     7    1
     6     4    18   am
     7     5     8    1
     8     5    18   am
     9     5    21    1
    10     8    22    1
    11     9    10    2
    12     9    11    1
    13    10    14    1
    14    11    15    2
    15    12    13    2
    16    12    19    1
    17    13    20    1
    18    14    23    2
    19    15    23    1
    20    16    19    2
    21    16    24    1
    22    17    21    1
    23    17    22    2
    24    20    24    2
    25    21    23    1
    26    22    24    1
@<TRIPOS>SUBSTRUCTURE
     1 RES1        1 GROUP             0 ****  ****    0  
@<TRIPOS>MOLECULE
2FL2:A:N4T604
    26    29     1     0     0
SMALL
NO_CHARGES
****
Generated from the CSD

@<TRIPOS>ATOM
     1 F1      21.9050  17.3230 104.6960   F         1 RES1   0.0000
     2 F2      21.8820  12.9780 107.8880   F         1 RES1   0.0000
     3 O3      15.2410  14.4540 109.5820   O.2       1 RES1   0.0000
     4 N4      14.2660  16.7220 108.3860   N.pl3     1 RES1   0.0000
     5 N5      17.3450  14.9070 108.7400   N.am      1 RES1   0.0000
     6 C6      18.3940  15.6750 108.0670   C.3       1 RES1   0.0000
     7 C7      18.0250  12.7100 113.3820   C.2       1 RES1   0.0000
     8 C8      17.0730  11.9910 112.6000   C.2       1 RES1   0.0000
     9 C9      18.8590  13.7180 112.8310   C.2       1 RES1   0.0000
    10 C10     23.0560  15.3840 105.4780   C.2       1 RES1   0.0000
    11 C11     23.0690  14.2980 106.3470   C.2       1 RES1   0.0000
    12 C12     17.0120  12.2410 111.1950   C.2       1 RES1   0.0000
    13 C13     18.7930  13.9870 111.4670   C.2       1 RES1   0.0000
    14 C14     15.7160  18.9430 109.9070   C.3       1 RES1   0.0000
    15 C15     17.0760  18.4100 110.0580   C.3       1 RES1   0.0000
    16 C16     20.7210  15.9580 106.1050   C.2       1 RES1   0.0000
    17 C17     18.9570  13.4520 108.2660   C.2       1 RES1   0.0000
    18 C18     21.8990  16.1940 105.3990   C.2       1 RES1   0.0000
    19 C19     16.0920  15.2380 109.1640   C.2       1 RES1   0.0000
    20 C20     21.8900  14.0580 107.0780   C.2       1 RES1   0.0000
    21 C21     15.5410  16.6530 109.0800   C.2       1 RES1   0.0000
    22 C22     17.8960  13.6160 109.1730   C.2       1 RES1   0.0000
    23 C23     19.4740  14.6110 107.7470   C.2       1 RES1   0.0000
    24 C24     15.9350  17.5020 110.0600   C.3       1 RES1   0.0000
    25 C25     17.8980  13.2400 110.6130   C.2       1 RES1   0.0000
    26 C26     20.7120  14.8590 106.9850   C.2       1 RES1   0.0000
@<TRIPOS>BOND
     1     1    18    1
     2     2    20    1
     3     3    19    2
     4     4    21    1
     5     5     6    1
     6     5    19   am
     7     5    22    1
     8     6    23    1
     9     7     8    2
    10     7     9    1
    11     8    12    1
    12     9    13    2
    13    10    11    2
    14    10    18    1
    15    11    20    1
    16    12    25    2
    17    13    25    1
    18    14    15    1
    19    14    24    1
    20    15    24    1
    21    16    18    2
    22    16    26    1
    23    17    22    1
    24    17    23    2
    25    19    21    1
    26    20    26    2
    27    21    24    1
    28    22    25    1
    29    23    26    1
@<TRIPOS>SUBSTRUCTURE
     1 RES1        1 GROUP             0 ****  ****    0  
@<TRIPOS>MOLECULE
3K3B:A:L31371
    24    27     1     0     0
SMALL
NO_CHARGES
****
Generated from the CSD

@<TRIPOS>ATOM
     1 O1      14.6640  14.1560 109.7490   O.2       1 RES1   0.0000
     2 O2      16.2070  11.3940 114.0330   O.3       1 RES1   0.0000
     3 N3      19.7310  13.2990 108.9860   N.2       1 RES1   0.0000
     4 N4      16.5930  15.3790 110.0840   N.am      1 RES1   0.0000
     5 C5      14.2410  16.4370 109.6620   C.3       1 RES1   0.0000
     6 C6      22.9130  16.0870 104.8750   C.3       1 RES1   0.0000
     7 C7      17.2070  16.7340 110.0370   C.3       1 RES1   0.0000
     8 C8      19.1430  13.7440 113.5410   C.2       1 RES1   0.0000
     9 C9      18.2560  12.8020 114.1630   C.2       1 RES1   0.0000
    10 C10     21.8000  13.2140 107.2190   C.2       1 RES1   0.0000
    11 C11     18.4410  16.8660 109.0720   C.3       1 RES1   0.0000
    12 C12     18.8880  14.1940 112.2460   C.2       1 RES1   0.0000
    13 C13     22.5020  13.9340 106.2550   C.2       1 RES1   0.0000
    14 C14     16.8170  12.7770 112.0920   C.2       1 RES1   0.0000
    15 C15     21.0140  15.9440 106.6240   C.2       1 RES1   0.0000
    16 C16     15.1410  15.2380 109.8490   C.2       1 RES1   0.0000
    17 C17     17.0780  12.3140 113.4250   C.2       1 RES1   0.0000
    18 C18     20.6480  13.8520 107.9350   C.2       1 RES1   0.0000
    19 C19     18.7140  14.2620 109.2770   C.2       1 RES1   0.0000
    20 C20     17.3930  14.1720 110.0510   C.3       1 RES1   0.0000
    21 C21     22.1170  15.3210 105.9410   C.2       1 RES1   0.0000
    22 C22     17.6780  13.6950 111.4860   C.2       1 RES1   0.0000
    23 C23     20.2770  15.1820 107.6350   C.2       1 RES1   0.0000
    24 C24     19.0660  15.5490 108.5540   C.2       1 RES1   0.0000
@<TRIPOS>BOND
     1     1    16    2
     2     2    17    1
     3     3    18    1
     4     3    19    1
     5     4     7    1
     6     4    16   am
     7     4    20    1
     8     5    16    1
     9     6    21    1
    10     7    11    1
    11     8     9    2
    12     8    12    1
    13     9    17    1
    14    10    13    1
    15    10    18    2
    16    11    24    1
    17    12    22    2
    18    13    21    2
    19    14    17    2
    20    14    22    1
    21    15    21    1
    22    15    23    2
    23    18    23    1
    24    19    20    1
    25    19    24    2
    26    20    22    1
    27    23    24    1
@<TRIPOS>SUBSTRUCTURE
     1 RES1        1 GROUP             0 ****  ****    0  
@<TRIPOS>MOLECULE
3L9H:A:EMQ601
    34    37     1     0     0
SMALL
NO_CHARGES
****
Generated from the CSD

@<TRIPOS>ATOM
     1 F1      23.0360  15.2360 104.3070   F         1 RES1   0.0000
     2 F2      21.5880  17.0130 104.4160   F         1 RES1   0.0000
     3 F3      23.4490  16.9830 105.7200   F         1 RES1   0.0000
     4 O4      12.7470  17.0760 108.2310   O.2       1 RES1   0.0000
     5 O5      17.5010  15.6900 107.7100   O.3       1 RES1   0.0000
     6 N6      12.1750  14.9260 108.7270   N.am      1 RES1   0.0000
     7 N7      14.1980  15.4220 107.6700   N.am      1 RES1   0.0000
     8 N8      19.6860  13.4640 109.3980   N.2       1 RES1   0.0000
     9 N9       8.5910  14.4390 109.6270   N.3       1 RES1   0.0000
    10 C10      8.1440  15.7520 110.0720   C.3       1 RES1   0.0000
    11 C11      7.4570  13.8710 108.8640   C.3       1 RES1   0.0000
    12 C12     10.9150  15.3100 109.3630   C.3       1 RES1   0.0000
    13 C13     15.2090  16.3490 107.1290   C.3       1 RES1   0.0000
    14 C14      9.7150  14.6350 108.6720   C.3       1 RES1   0.0000
    15 C15     18.0010  12.6830 114.1130   C.2       1 RES1   0.0000
    16 C16     17.1010  12.2770 113.1150   C.2       1 RES1   0.0000
    17 C17     19.0700  13.5380 113.7770   C.2       1 RES1   0.0000
    18 C18     15.9690  16.1290 109.5820   C.3       1 RES1   0.0000
    19 C19     17.2620  12.7220 111.7880   C.2       1 RES1   0.0000
    20 C20     19.2380  13.9880 112.4440   C.2       1 RES1   0.0000
    21 C21     21.4940  13.5620 107.7690   C.2       1 RES1   0.0000
    22 C22     17.1840  16.2180 110.5290   C.3       1 RES1   0.0000
    23 C23     22.1580  14.2300 106.7340   C.2       1 RES1   0.0000
    24 C24     20.5490  16.0520 106.8390   C.2       1 RES1   0.0000
    25 C25     13.0200  15.8590 108.2020   C.2       1 RES1   0.0000
    26 C26     16.3920  16.5200 108.1310   C.3       1 RES1   0.0000
    27 C27     18.6570  16.0370 108.4810   C.3       1 RES1   0.0000
    28 C28     20.3490  14.1390 108.3460   C.2       1 RES1   0.0000
    29 C29     18.4390  14.0230 110.0030   C.3       1 RES1   0.0000
    30 C30     18.3190  13.5700 111.4440   C.2       1 RES1   0.0000
    31 C31     18.4680  15.5720 109.9360   C.3       1 RES1   0.0000
    32 C32     19.8780  15.3900 107.8750   C.2       1 RES1   0.0000
    33 C33     21.6930  15.4770 106.2640   C.2       1 RES1   0.0000
    34 C34     22.4460  16.1890 105.1510   C.3       1 RES1   0.0000
@<TRIPOS>BOND
     1     1    34    1
     2     2    34    1
     3     3    34    1
     4     4    25    2
     5     5    26    1
     6     5    27    1
     7     6    12    1
     8     6    25   am
     9     7    13    1
    10     7    25   am
    11     8    28    1
    12     8    29    1
    13     9    10    1
    14     9    11    1
    15     9    14    1
    16    12    14    1
    17    13    26    1
    18    15    16    2
    19    15    17    1
    20    16    19    1
    21    17    20    2
    22    18    22    1
    23    18    26    1
    24    19    30    2
    25    20    30    1
    26    21    23    1
    27    21    28    2
    28    22    31    1
    29    23    33    2
    30    24    32    2
    31    24    33    1
    32    27    31    1
    33    27    32    1
    34    28    32    1
    35    29    30    1
    36    29    31    1
    37    33    34    1
@<TRIPOS>SUBSTRUCTURE
     1 RES1        1 GROUP             0 ****  ****    0  
@<TRIPOS>MOLECULE
5ZO7:A:5C5602
    30    33     1     0     0
SMALL
NO_CHARGES
****
Generated from the CSD

@<TRIPOS>ATOM
     1 S1      16.6240  13.8790 108.0860   S.3       1 RES1   0.0000
     2 O2      15.4770  15.8300 104.4110   O.co2     1 RES1   0.0000
     3 O3      16.3500  14.2540 103.1360   O.co2     1 RES1   0.0000
     4 O4      22.5980  14.3140 106.6430   O.3       1 RES1   0.0000
     5 N5      16.4500  12.4560 105.1350   N.3       1 RES1   0.0000
     6 C6      22.8940  14.9650 105.4150   C.3       1 RES1   0.0000
     7 C7      16.9660  14.4220 106.4580   C.3       1 RES1   0.0000
     8 C8      15.7410  18.5230 110.1720   C.2       1 RES1   0.0000
     9 C9      17.5500  13.0100 113.2890   C.2       1 RES1   0.0000
    10 C10     15.1210  17.5600 109.3880   C.2       1 RES1   0.0000
    11 C11     16.7170  12.5530 112.2740   C.2       1 RES1   0.0000
    12 C12     20.6620  15.6150 107.2020   C.2       1 RES1   0.0000
    13 C13     20.9550  13.3860 108.0470   C.2       1 RES1   0.0000
    14 C14     17.0110  18.2990 110.7050   C.2       1 RES1   0.0000
    15 C15     18.4380  14.0370 113.0610   C.2       1 RES1   0.0000
    16 C16     19.0690  17.0240 111.0580   C.3       1 RES1   0.0000
    17 C17     19.5340  15.7060 111.6600   C.3       1 RES1   0.0000
    18 C18     15.7550  16.3630 109.1100   C.2       1 RES1   0.0000
    19 C19     16.7410  13.1060 110.9910   C.2       1 RES1   0.0000
    20 C20     19.4530  15.7390 107.8610   C.2       1 RES1   0.0000
    21 C21     19.7400  13.5080 108.7260   C.2       1 RES1   0.0000
    22 C22     15.9220  14.6860 104.3120   C.2       1 RES1   0.0000
    23 C23     21.4070  14.4450 107.2790   C.2       1 RES1   0.0000
    24 C24     15.9870  13.7920 105.5070   C.3       1 RES1   0.0000
    25 C25     17.6870  17.1130 110.4700   C.2       1 RES1   0.0000
    26 C26     18.5070  14.6240 111.8080   C.2       1 RES1   0.0000
    27 C27     18.9930  14.6980 108.6510   C.2       1 RES1   0.0000
    28 C28     17.0380  16.0880 109.6000   C.2       1 RES1   0.0000
    29 C29     17.6360  14.1330 110.6880   C.2       1 RES1   0.0000
    30 C30     17.6470  14.7490 109.3140   C.3       1 RES1   0.0000
@<TRIPOS>BOND
     1     1     7    1
     2     1    30    1
     3     2    22    2
     4     3    22    1
     5     4     6    1
     6     4    23    1
     7     5    24    1
     8     7    24    1
     9     8    10    2
    10     8    14    1
    11     9    11    2
    12     9    15    1
    13    10    18    1
    14    11    19    1
    15    12    20    2
    16    12    23    1
    17    13    21    1
    18    13    23    2
    19    14    25    2
    20    15    26    2
    21    16    17    1
    22    16    25    1
    23    17    26    1
    24    18    28    2
    25    19    29    2
    26    20    27    1
    27    21    27    2
    28    22    24    1
    29    25    28    1
    30    26    29    1
    31    27    30    1
    32    28    30    1
    33    29    30    1
@<TRIPOS>SUBSTRUCTURE
     1 RES1        1 GROUP             0 ****  ****    0  
@<TRIPOS>MOLECULE
3K5E:A:K5E369
    19    21     1     0     0
SMALL
NO_CHARGES
****
Generated from the CSD

@<TRIPOS>ATOM
     1 S1      21.5320  13.2270 107.9790   S.2       1 RES1   0.0000
     2 O2      16.0310  11.2800 113.7530   O.3       1 RES1   0.0000
     3 O3      15.2940  14.2190 109.8740   O.3       1 RES1   0.0000
     4 N4      19.7630  15.0060 108.2030   N.am      1 RES1   0.0000
     5 N5      19.3390  12.9090 109.1720   N.am      1 RES1   0.0000
     6 C6      17.0670  17.4610 109.0790   C.3       1 RES1   0.0000
     7 C7      18.9400  13.4850 113.3660   C.2       1 RES1   0.0000
     8 C8      17.9740  12.6800 113.9500   C.2       1 RES1   0.0000
     9 C9      15.9180  16.4580 109.0410   C.3       1 RES1   0.0000
    10 C10     18.2550  16.9580 108.2470   C.3       1 RES1   0.0000
    11 C11     18.9580  13.6740 111.9750   C.2       1 RES1   0.0000
    12 C12     17.0150  12.2590 111.7710   C.2       1 RES1   0.0000
    13 C13     20.1240  13.7440 108.4900   C.2       1 RES1   0.0000
    14 C14     16.9960  12.0710 113.1610   C.2       1 RES1   0.0000
    15 C15     16.3260  15.2140 109.8340   C.3       1 RES1   0.0000
    16 C16     18.5870  15.5130 108.5950   C.2       1 RES1   0.0000
    17 C17     17.9930  13.0590 111.1750   C.2       1 RES1   0.0000
    18 C18     18.0040  13.2600 109.6920   C.3       1 RES1   0.0000
    19 C19     17.6310  14.6600 109.3550   C.2       1 RES1   0.0000
@<TRIPOS>BOND
     1     1    13    2
     2     2    14    1
     3     3    15    1
     4     4    13   am
     5     4    16    1
     6     5    13   am
     7     5    18    1
     8     6     9    1
     9     6    10    1
    10     7     8    2
    11     7    11    1
    12     8    14    1
    13     9    15    1
    14    10    16    1
    15    11    17    2
    16    12    14    2
    17    12    17    1
    18    15    19    1
    19    16    19    2
    20    17    18    1
    21    18    19    1
@<TRIPOS>SUBSTRUCTURE
     1 RES1        1 GROUP             0 ****  ****    0  
@<TRIPOS>MOLECULE
2Q2Z:A:MKK604
    34    37     1     0     0
SMALL
NO_CHARGES
****
Generated from the CSD

@<TRIPOS>ATOM
     1 F1      21.4610  13.0340 107.9890   F         1 RES1   0.0000
     2 O2      11.8700  15.3450 101.9220   O.2       1 RES1   0.0000
     3 O3      16.0460  17.1050 111.1600   O.2       1 RES1   0.0000
     4 N4      18.8390  16.0070 109.0290   N.2       1 RES1   0.0000
     5 N5      19.4280  14.9860 108.5070   N.pl3     1 RES1   0.0000
     6 N6      15.2230  14.4730 105.5560   N.3       1 RES1   0.0000
     7 N7      12.8710  15.0220 104.1130   N.am      1 RES1   0.0000
     8 C8      11.0950  13.4410 103.0850   C.3       1 RES1   0.0000
     9 C9      17.7800  18.4850 110.0710   C.3       1 RES1   0.0000
    10 C10     21.7320  17.5520 104.7960   C.3       1 RES1   0.0000
    11 C11     14.2860  13.3390 105.1470   C.3       1 RES1   0.0000
    12 C12     15.3000  15.6420 104.5890   C.3       1 RES1   0.0000
    13 C13     12.8730  14.0540 105.2620   C.3       1 RES1   0.0000
    14 C14     13.8670  16.1920 104.3330   C.3       1 RES1   0.0000
    15 C15     14.8810  14.8760 106.9940   C.3       1 RES1   0.0000
    16 C16     18.8770  13.8770 109.2330   C.3       1 RES1   0.0000
    17 C17     16.2080  14.9540 107.7950   C.3       1 RES1   0.0000
    18 C18     18.0760  13.0140 113.9640   C.2       1 RES1   0.0000
    19 C19     16.9580  12.4290 113.1290   C.2       1 RES1   0.0000
    20 C20     19.0490  14.0190 113.5380   C.2       1 RES1   0.0000
    21 C21     22.4870  14.1950 106.4260   C.2       1 RES1   0.0000
    22 C22     16.7730  12.9090 111.7630   C.2       1 RES1   0.0000
    23 C23     18.8000  14.4340 112.1720   C.2       1 RES1   0.0000
    24 C24     22.4700  15.3810 105.5980   C.2       1 RES1   0.0000
    25 C25     16.2670  14.1710 109.0680   C.3       1 RES1   0.0000
    26 C26     20.4750  16.3060 106.6870   C.2       1 RES1   0.0000
    27 C27     11.9930  14.6960 102.9680   C.2       1 RES1   0.0000
    28 C28     21.4360  14.1240 107.3190   C.2       1 RES1   0.0000
    29 C29     17.0830  17.1250 110.4360   C.2       1 RES1   0.0000
    30 C30     20.4730  15.0540 107.5550   C.2       1 RES1   0.0000
    31 C31     17.7990  15.9100 109.8330   C.2       1 RES1   0.0000
    32 C32     21.5110  16.4490 105.7000   C.2       1 RES1   0.0000
    33 C33     17.7120  13.9090 111.3070   C.2       1 RES1   0.0000
    34 C34     17.5820  14.4370 109.8910   C.3       1 RES1   0.0000
@<TRIPOS>BOND
     1     1    28    1
     2     2    27    2
     3     3    29    2
     4     4     5    1
     5     4    31    2
     6     5    16    1
     7     5    30    1
     8     6    11    1
     9     6    12    1
    10     6    15    1
    11     7    13    1
    12     7    14    1
    13     7    27   am
    14     8    27    1
    15     9    29    1
    16    10    32    1
    17    11    13    1
    18    12    14    1
    19    15    17    1
    20    16    34    1
    21    17    25    1
    22    18    19    2
    23    18    20    1
    24    19    22    1
    25    20    23    2
    26    21    24    2
    27    21    28    1
    28    22    33    2
    29    23    33    1
    30    24    32    1
    31    25    34    1
    32    26    30    1
    33    26    32    2
    34    28    30    2
    35    29    31    1
    36    31    34    1
    37    33    34    1
@<TRIPOS>SUBSTRUCTURE
     1 RES1        1 GROUP             0 ****  ****    0  
