@<TRIPOS>MOLECULE
1S1X:A:NVP999
    20    23     1     0     0
SMALL
NO_CHARGES
****
Generated from the CSD

@<TRIPOS>ATOM
     1 O1       8.8400  10.7370  18.3300   O.2       1 RES1   0.0000
     2 N2       9.5190  13.6220  14.5470   N.2       1 RES1   0.0000
     3 N3      11.8790  15.4010  17.1390   N.2       1 RES1   0.0000
     4 N4      10.2020  12.4790  18.7350   N.am      1 RES1   0.0000
     5 N5      11.2160  13.2730  16.2460   N.3       1 RES1   0.0000
     6 C6      10.4720  14.1630  21.0320   C.3       1 RES1   0.0000
     7 C7       8.2500  13.4230  14.0780   C.2       1 RES1   0.0000
     8 C8      11.9760  16.2400  18.2090   C.2       1 RES1   0.0000
     9 C9       7.2770  12.6930  14.8160   C.2       1 RES1   0.0000
    10 C10     11.5240  15.8650  19.5040   C.2       1 RES1   0.0000
    11 C11     13.5500  12.7030  15.4850   C.3       1 RES1   0.0000
    12 C12     12.6190  12.1790  14.4510   C.3       1 RES1   0.0000
    13 C13      7.6340  12.1710  16.0780   C.2       1 RES1   0.0000
    14 C14      9.3610  11.7970  17.9410   C.2       1 RES1   0.0000
    15 C15     11.3380  14.1720  17.3320   C.2       1 RES1   0.0000
    16 C16      9.8630  13.1110  15.7600   C.2       1 RES1   0.0000
    17 C17     10.8620  13.7440  18.5840   C.2       1 RES1   0.0000
    18 C18     12.2690  13.4060  15.2100   C.3       1 RES1   0.0000
    19 C19     10.9690  14.5980  19.6800   C.2       1 RES1   0.0000
    20 C20      8.9420  12.3760  16.5670   C.2       1 RES1   0.0000
@<TRIPOS>BOND
     1     1    14    2
     2     2     7    2
     3     2    16    1
     4     3     8    1
     5     3    15    2
     6     4    14   am
     7     4    17    1
     8     5    15    1
     9     5    16    1
    10     5    18    1
    11     6    19    1
    12     7     9    1
    13     8    10    2
    14     9    13    2
    15    10    19    1
    16    11    12    1
    17    11    18    1
    18    12    18    1
    19    13    20    1
    20    14    20    1
    21    15    17    1
    22    16    20    2
    23    17    19    2
@<TRIPOS>SUBSTRUCTURE
     1 RES1        1 GROUP             0 ****  ****    0  
@<TRIPOS>MOLECULE
3LAN:A:KBT561
    26    27     1     0     0
SMALL
NO_CHARGES
****
Generated from the CSD

@<TRIPOS>ATOM
     1 O1       6.9020  12.7200  13.9650   O.2       1 RES1   0.0000
     2 O2      11.1820  13.5750  13.3420   O.2       1 RES1   0.0000
     3 O3       9.4480  10.4590  17.8200   O.2       1 RES1   0.0000
     4 N4       9.9510  11.6150  23.6670   N.1       1 RES1   0.0000
     5 N5       9.0530  13.1270  13.7110   N.am      1 RES1   0.0000
     6 N6       8.2520  12.2250  15.7100   N.am      1 RES1   0.0000
     7 C7       5.6690   8.1410  16.9450   C.3       1 RES1   0.0000
     8 C8      10.6220  16.2500  19.8160   C.3       1 RES1   0.0000
     9 C9      12.7560  14.0890  16.0320   C.3       1 RES1   0.0000
    10 C10     13.0140  11.6640  15.1560   C.3       1 RES1   0.0000
    11 C11     10.0320  12.1070  22.6320   C.1       1 RES1   0.0000
    12 C12      7.0190  11.7460  16.4800   C.3       1 RES1   0.0000
    13 C13      6.0340   9.5920  17.3160   C.3       1 RES1   0.0000
    14 C14      6.6540  10.2910  16.0940   C.3       1 RES1   0.0000
    15 C15     10.3330  14.1290  21.2550   C.2       1 RES1   0.0000
    16 C16     10.1410  13.9510  18.8060   C.2       1 RES1   0.0000
    17 C17      9.8790  11.9150  20.1960   C.2       1 RES1   0.0000
    18 C18      8.0270  12.6800  14.4650   C.2       1 RES1   0.0000
    19 C19     10.3390  13.1470  14.1140   C.2       1 RES1   0.0000
    20 C20      9.6430  11.6580  17.6840   C.2       1 RES1   0.0000
    21 C21     10.3650  14.7480  19.9670   C.2       1 RES1   0.0000
    22 C22      9.5730  12.1940  16.2580   C.2       1 RES1   0.0000
    23 C23     12.1430  12.6460  16.0310   C.3       1 RES1   0.0000
    24 C24     10.0890  12.7150  21.3590   C.2       1 RES1   0.0000
    25 C25      9.9010  12.5270  18.9080   C.2       1 RES1   0.0000
    26 C26     10.6870  12.6420  15.5240   C.2       1 RES1   0.0000
@<TRIPOS>BOND
     1     1    18    2
     2     2    19    2
     3     3    20    2
     4     4    11    3
     5     5    18   am
     6     5    19   am
     7     6    12    1
     8     6    18   am
     9     6    22    1
    10     7    13    1
    11     8    21    1
    12     9    23    1
    13    10    23    1
    14    11    24    1
    15    12    14    1
    16    13    14    1
    17    15    21    2
    18    15    24    1
    19    16    21    1
    20    16    25    2
    21    17    24    2
    22    17    25    1
    23    19    26    1
    24    20    22    1
    25    20    25    1
    26    22    26    2
    27    23    26    1
@<TRIPOS>SUBSTRUCTURE
     1 RES1        1 GROUP             0 ****  ****    0  
@<TRIPOS>MOLECULE
1LW2:A:U05999
    22    24     1     0     0
SMALL
USER_CHARGES
****
Generated from the CSD

@<TRIPOS>ATOM
     1 O1      13.1990  17.8130  17.3040   O.3       1 RES1  -1.0000
     2 O2      12.8500  18.3450  19.3710   O.2       1 RES1   0.0000
     3 O3       8.6630  10.8100  18.6520   O.2       1 RES1   0.0000
     4 N4       9.8070  13.1910  14.7430   N.2       1 RES1   0.0000
     5 N5      12.7420  17.5960  18.4210   N.pl3     1 RES1   1.0000
     6 N6       9.9330  12.5850  19.2050   N.am      1 RES1   0.0000
     7 N7      11.2630  13.1390  16.7170   N.pl3     1 RES1   0.0000
     8 C8      10.0560  12.0170  20.6340   C.3       1 RES1   0.0000
     9 C9      12.6200  12.4060  14.4820   C.3       1 RES1   0.0000
    10 C10      8.6050  12.9340  14.1510   C.2       1 RES1   0.0000
    11 C11     12.5860  13.0250  15.8790   C.3       1 RES1   0.0000
    12 C12      7.5360  12.3590  14.8590   C.2       1 RES1   0.0000
    13 C13      7.7160  12.0650  16.2370   C.2       1 RES1   0.0000
    14 C14     11.4590  16.0040  19.8880   C.2       1 RES1   0.0000
    15 C15     10.7830  14.7690  20.0740   C.2       1 RES1   0.0000
    16 C16     11.9040  15.3960  17.5740   C.2       1 RES1   0.0000
    17 C17      9.1770  11.8880  18.3160   C.2       1 RES1   0.0000
    18 C18      9.9860  12.9060  16.0680   C.2       1 RES1   0.0000
    19 C19     12.0070  16.3220  18.6280   C.2       1 RES1   0.0000
    20 C20     10.6670  13.8340  19.0050   C.2       1 RES1   0.0000
    21 C21     11.2420  14.1610  17.7500   C.2       1 RES1   0.0000
    22 C22      8.9560  12.3260  16.8510   C.2       1 RES1   0.0000
@<TRIPOS>BOND
     1     1     5    1
     2     2     5    2
     3     3    17    2
     4     4    10    2
     5     4    18    1
     6     5    19    1
     7     6     8    1
     8     6    17   am
     9     6    20    1
    10     7    11    1
    11     7    18    1
    12     7    21    1
    13     9    11    1
    14    10    12    1
    15    12    13    2
    16    13    22    1
    17    14    15    1
    18    14    19    2
    19    15    20    2
    20    16    19    1
    21    16    21    2
    22    17    22    1
    23    18    22    2
    24    20    21    1
@<TRIPOS>SUBSTRUCTURE
     1 RES1        1 GROUP             0 ****  ****    0  
@<TRIPOS>MOLECULE
6BSG:A:EFZ601
    21    22     1     0     0
SMALL
NO_CHARGES
****
Generated from the CSD

@<TRIPOS>ATOM
     1 Cl1      7.6000  10.4060  17.1860   Cl        1 RES1   0.0000
     2 F2      12.5080  12.3320  14.0020   F         1 RES1   0.0000
     3 F3      13.6480  12.9770  15.7540   F         1 RES1   0.0000
     4 F4      12.1710  11.4130  15.9000   F         1 RES1   0.0000
     5 O5      11.3040  15.8200  12.7630   O.2       1 RES1   0.0000
     6 O6      11.3930  14.6900  14.7440   O.3       1 RES1   0.0000
     7 N7       9.8210  14.2980  13.1270   N.am      1 RES1   0.0000
     8 C8       7.5320  11.7280  15.0970   C.2       1 RES1   0.0000
     9 C9      10.6670  14.5620  20.5320   C.2       1 RES1   0.0000
    10 C10     11.1480  16.2900  19.8930   C.2       1 RES1   0.0000
    11 C11      7.8600  12.6010  14.0480   C.2       1 RES1   0.0000
    12 C12     11.5730  14.4260  18.1840   C.1       1 RES1   0.0000
    13 C13     11.5320  14.0090  17.0500   C.1       1 RES1   0.0000
    14 C14      9.3960  12.0360  16.2460   C.2       1 RES1   0.0000
    15 C15      8.2850  11.5220  16.0580   C.2       1 RES1   0.0000
    16 C16     10.8780  14.9790  13.5350   C.2       1 RES1   0.0000
    17 C17     11.6330  15.0430  19.7220   C.3       1 RES1   0.0000
    18 C18      9.1510  13.3820  13.9720   C.2       1 RES1   0.0000
    19 C19      9.9140  12.9400  15.3230   C.2       1 RES1   0.0000
    20 C20     12.4480  12.5770  15.3220   C.3       1 RES1   0.0000
    21 C21     11.3580  13.5950  15.5870   C.3       1 RES1   0.0000
@<TRIPOS>BOND
     1     1    15    1
     2     2    20    1
     3     3    20    1
     4     4    20    1
     5     5    16    2
     6     6    16    1
     7     6    21    1
     8     7    16   am
     9     7    18    1
    10     8    11    1
    11     8    15    2
    12     9    17    1
    13    10    17    1
    14    11    18    2
    15    12    13    3
    16    12    17    1
    17    13    21    1
    18    14    15    1
    19    14    19    2
    20    18    19    1
    21    19    21    1
    22    20    21    1
@<TRIPOS>SUBSTRUCTURE
     1 RES1        1 GROUP             0 ****  ****    0  
@<TRIPOS>MOLECULE
2WON:A:ZZE1558
    23    24     1     0     0
SMALL
NO_CHARGES
****
Generated from the CSD

@<TRIPOS>ATOM
     1 O1       5.8880  11.1940  11.9130   O.3       1 RES1   0.0000
     2 O2       9.2500  11.1890  17.8350   O.3       1 RES1   0.0000
     3 N3       9.6930  10.2530  23.7330   N.1       1 RES1   0.0000
     4 N4      10.7990  16.1580  19.6870   N.1       1 RES1   0.0000
     5 N5       9.2980  12.5780  14.5600   N.2       1 RES1   0.0000
     6 N6       7.9720  12.2980  14.7500   N.pl3     1 RES1   0.0000
     7 C7      12.2020  12.4950  14.3700   C.3       1 RES1   0.0000
     8 C8       6.4730  10.0180  17.1880   C.2       1 RES1   0.0000
     9 C9       6.5510  11.1410  13.2090   C.3       1 RES1   0.0000
    10 C10      9.7470  10.8600  22.7160   C.1       1 RES1   0.0000
    11 C11     10.5250  15.0240  19.9560   C.1       1 RES1   0.0000
    12 C12      6.9940  12.5560  13.7630   C.3       1 RES1   0.0000
    13 C13     11.5170  12.3400  15.7660   C.3       1 RES1   0.0000
    14 C14      6.4050  11.3080  16.6100   C.2       1 RES1   0.0000
    15 C15      9.4730  10.9090  20.2720   C.2       1 RES1   0.0000
    16 C16      9.9150  13.0960  19.0330   C.2       1 RES1   0.0000
    17 C17     10.1560  12.9750  21.5630   C.2       1 RES1   0.0000
    18 C18      9.5430  11.7450  19.0370   C.2       1 RES1   0.0000
    19 C19      9.0280  11.7250  16.5270   C.2       1 RES1   0.0000
    20 C20     10.0130  12.2280  15.6120   C.2       1 RES1   0.0000
    21 C21      7.7360  11.7610  15.9710   C.2       1 RES1   0.0000
    22 C22      9.8070  11.5780  21.5180   C.2       1 RES1   0.0000
    23 C23     10.1990  13.6900  20.2720   C.2       1 RES1   0.0000
@<TRIPOS>BOND
     1     1     9    1
     2     2    18    1
     3     2    19    1
     4     3    10    3
     5     4    11    3
     6     5     6    1
     7     5    20    2
     8     6    12    1
     9     6    21    1
    10     7    13    1
    11     8    14    2
    12     9    12    1
    13    10    22    1
    14    11    23    1
    15    13    20    1
    16    14    21    1
    17    15    18    2
    18    15    22    1
    19    16    18    1
    20    16    23    2
    21    17    22    2
    22    17    23    1
    23    19    20    1
    24    19    21    2
@<TRIPOS>SUBSTRUCTURE
     1 RES1        1 GROUP             0 ****  ****    0  
@<TRIPOS>MOLECULE
2HNZ:A:PC0999
    23    24     1     0     0
SMALL
NO_CHARGES
****
Generated from the CSD

@<TRIPOS>ATOM
     1 S1      10.9410  15.6790  12.3710   S.2       1 RES1   0.0000
     2 F2      12.0620  12.1380  17.3370   F         1 RES1   0.0000
     3 O3      10.9560  13.0970  19.7060   O.3       1 RES1   0.0000
     4 N4      11.4990  13.8120  14.2640   N.am      1 RES1   0.0000
     5 N5       9.3840  12.6560  15.5140   N.2       1 RES1   0.0000
     6 N6      13.0260  15.6540  17.0920   N.2       1 RES1   0.0000
     7 N7       9.3950  13.7880  13.4100   N.am      1 RES1   0.0000
     8 C8       9.2390  12.3520  21.1500   C.3       1 RES1   0.0000
     9 C9       6.6210  10.3600  17.2940   C.3       1 RES1   0.0000
    10 C10      9.5860  13.2920  20.0000   C.3       1 RES1   0.0000
    11 C11     12.8540  14.3200  14.3270   C.3       1 RES1   0.0000
    12 C12     12.4550  16.1890  18.2300   C.2       1 RES1   0.0000
    13 C13      8.7350  11.8470  16.4320   C.2       1 RES1   0.0000
    14 C14     11.7320  15.3510  19.1080   C.2       1 RES1   0.0000
    15 C15     13.5700  13.7650  15.5300   C.3       1 RES1   0.0000
    16 C16      7.4840  12.5360  14.0410   C.2       1 RES1   0.0000
    17 C17      6.8090  11.7140  14.9570   C.2       1 RES1   0.0000
    18 C18     10.6090  14.3440  13.4260   C.2       1 RES1   0.0000
    19 C19      8.7850  13.0060  14.3260   C.2       1 RES1   0.0000
    20 C20     12.1890  13.4340  17.6360   C.2       1 RES1   0.0000
    21 C21     11.6000  13.9690  18.8170   C.2       1 RES1   0.0000
    22 C22     12.9100  14.3000  16.7790   C.2       1 RES1   0.0000
    23 C23      7.4360  11.3660  16.1640   C.2       1 RES1   0.0000
@<TRIPOS>BOND
     1     1    18    2
     2     2    20    1
     3     3    10    1
     4     3    21    1
     5     4    11    1
     6     4    18   am
     7     5    13    2
     8     5    19    1
     9     6    12    2
    10     6    22    1
    11     7    18   am
    12     7    19    1
    13     8    10    1
    14     9    23    1
    15    11    15    1
    16    12    14    1
    17    13    23    1
    18    14    21    2
    19    15    22    1
    20    16    17    1
    21    16    19    2
    22    17    23    2
    23    20    21    1
    24    20    22    2
@<TRIPOS>SUBSTRUCTURE
     1 RES1        1 GROUP             0 ****  ****    0  
@<TRIPOS>MOLECULE
3M8P:A:65B562
    28    30     1     0     0
SMALL
NO_CHARGES
****
Generated from the CSD

@<TRIPOS>ATOM
     1 Br1     14.0360  16.1890  15.2830   Br        1 RES1   0.0000
     2 O2      12.5390  14.4330  16.6840   O.3       1 RES1   0.0000
     3 N3       5.4290   8.9040  16.6940   N.1       1 RES1   0.0000
     4 N4       9.4490  10.5280  21.1380   N.1       1 RES1   0.0000
     5 N5      12.3800  16.8010  12.7270   N.pl3     1 RES1   0.0000
     6 N6      10.5920  14.1840  15.2600   N.2       1 RES1   0.0000
     7 N7      10.5620  15.4110  13.3310   N.2       1 RES1   0.0000
     8 N8       8.7130  14.0400  13.7920   N.2       1 RES1   0.0000
     9 C9      11.5060  15.7250  18.8970   C.3       1 RES1   0.0000
    10 C10     12.4740  11.8160  16.1720   C.3       1 RES1   0.0000
    11 C11      6.0820   9.7890  16.3170   C.1       1 RES1   0.0000
    12 C12      9.9650  11.2180  20.3710   C.1       1 RES1   0.0000
    13 C13      8.4950  12.6130  15.7570   C.2       1 RES1   0.0000
    14 C14      7.0950  12.3450  13.7740   C.2       1 RES1   0.0000
    15 C15      7.8500  11.5660  16.3970   C.2       1 RES1   0.0000
    16 C16      6.4750  11.2940  14.4210   C.2       1 RES1   0.0000
    17 C17     10.7100  13.5040  19.6910   C.2       1 RES1   0.0000
    18 C18     11.1230  11.4880  18.3200   C.2       1 RES1   0.0000
    19 C19      9.9780  14.5410  14.1400   C.2       1 RES1   0.0000
    20 C20     11.7940  14.6990  15.5820   C.2       1 RES1   0.0000
    21 C21     12.3680  15.5520  14.7380   C.2       1 RES1   0.0000
    22 C22     11.7400  15.9180  13.5810   C.2       1 RES1   0.0000
    23 C23     11.9120  13.6920  17.6490   C.2       1 RES1   0.0000
    24 C24      8.1120  12.9990  14.4530   C.2       1 RES1   0.0000
    25 C25      6.8280  10.8880  15.7250   C.2       1 RES1   0.0000
    26 C26     10.6000  12.0990  19.4510   C.2       1 RES1   0.0000
    27 C27     11.3500  14.2550  18.7650   C.2       1 RES1   0.0000
    28 C28     11.8120  12.3290  17.4300   C.2       1 RES1   0.0000
@<TRIPOS>BOND
     1     1    21    1
     2     2    20    1
     3     2    23    1
     4     3    11    3
     5     4    12    3
     6     5    22    1
     7     6    19    2
     8     6    20    1
     9     7    19    1
    10     7    22    2
    11     8    19    1
    12     8    24    1
    13     9    27    1
    14    10    28    1
    15    11    25    1
    16    12    26    1
    17    13    15    2
    18    13    24    1
    19    14    16    1
    20    14    24    2
    21    15    25    1
    22    16    25    2
    23    17    26    2
    24    17    27    1
    25    18    26    1
    26    18    28    2
    27    20    21    2
    28    21    22    1
    29    23    27    2
    30    23    28    1
@<TRIPOS>SUBSTRUCTURE
     1 RES1        1 GROUP             0 ****  ****    0  
@<TRIPOS>MOLECULE
3T19:A:5MA561
    31    35     1     0     0
SMALL
NO_CHARGES
****
Generated from the CSD

@<TRIPOS>ATOM
     1 Cl1     10.8720  16.3900  19.6910   Cl        1 RES1   0.0000
     2 Cl2     13.0860  12.0030  15.3520   Cl        1 RES1   0.0000
     3 Cl3     10.1950  10.2390  19.6610   Cl        1 RES1   0.0000
     4 O4      11.2400  11.8600  17.5020   O.3       1 RES1   0.0000
     5 N5      10.3180  11.2600  23.0660   N.3       1 RES1   0.0000
     6 N6       7.0100  12.2720  16.3910   N.2       1 RES1   0.0000
     7 N7       8.1480  12.0870  17.0270   N.2       1 RES1   0.0000
     8 N8       6.5490   9.1290  12.7200   N.2       1 RES1   0.0000
     9 N9       6.5940  10.4800  12.6010   N.2       1 RES1   0.0000
    10 N10      6.0610   7.3540  14.3760   N.2       1 RES1   0.0000
    11 N11      7.3140  12.4280  15.0510   N.pl3     1 RES1   0.0000
    12 C12      9.4040  11.8930  22.0940   C.3       1 RES1   0.0000
    13 C13      5.6610   7.1990  15.7220   C.2       1 RES1   0.0000
    14 C14      5.3520   8.2650  16.6070   C.2       1 RES1   0.0000
    15 C15      6.2240  12.4890  14.0360   C.3       1 RES1   0.0000
    16 C16     10.8490  12.4410  13.8840   C.2       1 RES1   0.0000
    17 C17      5.4920   9.5890  16.0840   C.2       1 RES1   0.0000
    18 C18      9.4460  12.4920  13.7220   C.2       1 RES1   0.0000
    19 C19     11.0360  13.9710  18.6060   C.2       1 RES1   0.0000
    20 C20     10.1520  14.0360  20.9410   C.2       1 RES1   0.0000
    21 C21     10.6680  14.6780  19.7720   C.2       1 RES1   0.0000
    22 C22     11.3930  12.1680  15.1590   C.2       1 RES1   0.0000
    23 C23     10.3570  11.9450  19.7400   C.2       1 RES1   0.0000
    24 C24     10.8760  12.6080  18.6080   C.2       1 RES1   0.0000
    25 C25      6.1760   8.6740  13.9460   C.2       1 RES1   0.0000
    26 C26     10.5770  12.0720  16.2850   C.2       1 RES1   0.0000
    27 C27      6.2010  10.9530  13.7960   C.2       1 RES1   0.0000
    28 C28      9.1650  12.1670  16.1080   C.2       1 RES1   0.0000
    29 C29      8.6560  12.3750  14.8460   C.2       1 RES1   0.0000
    30 C30      9.9860  12.6300  20.9150   C.2       1 RES1   0.0000
    31 C31      5.9190   9.8320  14.7050   C.2       1 RES1   0.0000
@<TRIPOS>BOND
     1     1    21    1
     2     2    22    1
     3     3    23    1
     4     4    24    1
     5     4    26    1
     6     5    12    1
     7     6     7    2
     8     6    11    1
     9     7    28    1
    10     8     9    1
    11     8    25    1
    12     9    27    2
    13    10    13    1
    14    10    25    2
    15    11    15    1
    16    11    29    1
    17    12    30    1
    18    13    14    2
    19    14    17    1
    20    15    27    1
    21    16    18    1
    22    16    22    2
    23    17    31    2
    24    18    29    2
    25    19    21    2
    26    19    24    1
    27    20    21    1
    28    20    30    2
    29    22    26    1
    30    23    24    2
    31    23    30    1
    32    25    31    1
    33    26    28    2
    34    27    31    1
    35    28    29    1
@<TRIPOS>SUBSTRUCTURE
     1 RES1        1 GROUP             0 ****  ****    0  
@<TRIPOS>MOLECULE
3MEG:A:T27561
    28    30     1     0     0
SMALL
NO_CHARGES
****
Generated from the CSD

@<TRIPOS>ATOM
     1 N1       9.1310  11.0810  22.9520   N.1       1 RES1   0.0000
     2 N2       6.4190   9.5600  17.6090   N.1       1 RES1   0.0000
     3 N3      10.8890  15.8750  12.5140   N.2       1 RES1   0.0000
     4 N4      11.2650  14.8670  14.7010   N.2       1 RES1   0.0000
     5 N5       9.2550  14.2200  13.3820   N.2       1 RES1   0.0000
     6 N6      13.2030  15.4480  16.0360   N.2       1 RES1   0.0000
     7 C7      12.8970  12.4400  16.2850   C.3       1 RES1   0.0000
     8 C8      12.1940  17.3150  18.0920   C.3       1 RES1   0.0000
     9 C9       9.6290  11.4700  21.9820   C.1       1 RES1   0.0000
    10 C10     12.0940  16.6350  12.6610   C.2       1 RES1   0.0000
    11 C11      6.8720  10.3360  16.8820   C.1       1 RES1   0.0000
    12 C12     10.2900  11.9580  20.8180   C.2       1 RES1   0.0000
    13 C13     12.8950  16.5190  13.8290   C.2       1 RES1   0.0000
    14 C14     10.4750  13.2830  20.6740   C.2       1 RES1   0.0000
    15 C15      9.2520  12.9250  15.5350   C.2       1 RES1   0.0000
    16 C16      7.4460  12.6390  13.8550   C.2       1 RES1   0.0000
    17 C17      8.6560  11.9630  16.3910   C.2       1 RES1   0.0000
    18 C18      6.8260  11.6500  14.7240   C.2       1 RES1   0.0000
    19 C19     11.7140  12.9540  18.4470   C.2       1 RES1   0.0000
    20 C20     11.3620  15.2660  19.3450   C.2       1 RES1   0.0000
    21 C21     10.4520  14.9710  13.5460   C.2       1 RES1   0.0000
    22 C22     12.4650  15.6210  14.8570   C.2       1 RES1   0.0000
    23 C23      8.6750  13.2850  14.2500   C.2       1 RES1   0.0000
    24 C24      7.4490  11.3170  15.9990   C.2       1 RES1   0.0000
    25 C25     11.1960  13.8470  19.4700   C.2       1 RES1   0.0000
    26 C26     12.5620  14.9170  17.1480   C.2       1 RES1   0.0000
    27 C27     12.3870  13.4560  17.3070   C.2       1 RES1   0.0000
    28 C28     12.0380  15.8120  18.1960   C.2       1 RES1   0.0000
@<TRIPOS>BOND
     1     1     9    3
     2     2    11    3
     3     3    10    2
     4     3    21    1
     5     4    21    2
     6     4    22    1
     7     5    21    1
     8     5    23    1
     9     6    22    1
    10     6    26    1
    11     7    27    1
    12     8    28    1
    13     9    12    1
    14    10    13    1
    15    11    24    1
    16    12    14    2
    17    13    22    2
    18    14    25    1
    19    15    17    2
    20    15    23    1
    21    16    18    1
    22    16    23    2
    23    17    24    1
    24    18    24    2
    25    19    25    2
    26    19    27    1
    27    20    25    1
    28    20    28    2
    29    26    27    2
    30    26    28    1
@<TRIPOS>SUBSTRUCTURE
     1 RES1        1 GROUP             0 ****  ****    0  
@<TRIPOS>MOLECULE
2YNH:A:EUR1560
    30    32     1     0     0
SMALL
NO_CHARGES
****
Generated from the CSD

@<TRIPOS>ATOM
     1 Cl1      5.4690   8.7050  16.7640   Cl        1 RES1   0.0000
     2 Cl2     10.5210  15.6960  20.0200   Cl        1 RES1   0.0000
     3 Cl3     12.4590  12.1140  15.4860   Cl        1 RES1   0.0000
     4 F4       7.8240  11.4970  17.1590   F         1 RES1   0.0000
     5 O5       5.9660   5.5970  11.5360   O.3       1 RES1   0.0000
     6 O6       6.9770  10.5840  12.7540   O.2       1 RES1   0.0000
     7 O7      10.5410  11.3580  17.4250   O.3       1 RES1   0.0000
     8 N8       9.9450  10.4000  23.1680   N.1       1 RES1   0.0000
     9 N9       6.1490  11.0110  14.8630   N.am      1 RES1   0.0000
    10 N10      5.6430   6.7610  14.9220   N.2       1 RES1   0.0000
    11 N11      6.2650   7.7830  13.0610   N.2       1 RES1   0.0000
    12 C12      5.9200   5.2950  12.9210   C.3       1 RES1   0.0000
    13 C13     10.0680  11.0720  22.2310   C.1       1 RES1   0.0000
    14 C14      6.4850  12.4300  14.8390   C.3       1 RES1   0.0000
    15 C15     10.2210  12.7330  14.0450   C.2       1 RES1   0.0000
    16 C16      8.8380  12.7960  13.9180   C.2       1 RES1   0.0000
    17 C17     10.5150  13.3400  18.7160   C.2       1 RES1   0.0000
    18 C18     10.2810  13.2510  21.1410   C.2       1 RES1   0.0000
    19 C19     10.3010  11.2020  19.8210   C.2       1 RES1   0.0000
    20 C20      5.7860   8.0870  15.1730   C.2       1 RES1   0.0000
    21 C21     10.4310  13.9570  19.9560   C.2       1 RES1   0.0000
    22 C22     10.7550  12.2430  15.2310   C.2       1 RES1   0.0000
    23 C23      8.5800  11.9060  16.1180   C.2       1 RES1   0.0000
    24 C24      6.4600  10.1830  13.7970   C.2       1 RES1   0.0000
    25 C25     10.4420  11.9500  18.6610   C.2       1 RES1   0.0000
    26 C26      9.9520  11.8310  16.2800   C.2       1 RES1   0.0000
    27 C27      5.9380   6.6060  13.6450   C.2       1 RES1   0.0000
    28 C28      6.1510   8.7770  14.0270   C.2       1 RES1   0.0000
    29 C29     10.2210  11.8620  21.0520   C.2       1 RES1   0.0000
    30 C30      7.9940  12.4060  14.9590   C.2       1 RES1   0.0000
@<TRIPOS>BOND
     1     1    20    1
     2     2    21    1
     3     3    22    1
     4     4    23    1
     5     5    12    1
     6     6    24    2
     7     7    25    1
     8     7    26    1
     9     8    13    3
    10     9    14    1
    11     9    24   am
    12    10    20    1
    13    10    27    2
    14    11    27    1
    15    11    28    1
    16    12    27    1
    17    13    29    1
    18    14    30    1
    19    15    16    2
    20    15    22    1
    21    16    30    1
    22    17    21    2
    23    17    25    1
    24    18    21    1
    25    18    29    2
    26    19    25    2
    27    19    29    1
    28    20    28    2
    29    22    26    2
    30    23    26    1
    31    23    30    2
    32    24    28    1
@<TRIPOS>SUBSTRUCTURE
     1 RES1        1 GROUP             0 ****  ****    0  
@<TRIPOS>MOLECULE
1S1V:A:TNK999
    27    29     1     0     0
SMALL
NO_CHARGES
****
Generated from the CSD

@<TRIPOS>ATOM
     1 O1       7.0030  12.4920  13.4250   O.2       1 RES1   0.0000
     2 O2      11.3390  13.3310  12.5350   O.2       1 RES1   0.0000
     3 O3       6.5720  10.8800  15.5460   O.3       1 RES1   0.0000
     4 N4       9.1890  12.9130  13.0510   N.am      1 RES1   0.0000
     5 N5       8.4740  12.3500  15.2390   N.am      1 RES1   0.0000
     6 C6      12.9780  11.5190  15.4640   C.3       1 RES1   0.0000
     7 C7      12.7850  14.0010  16.1050   C.3       1 RES1   0.0000
     8 C8       7.3400  11.9300  16.1480   C.3       1 RES1   0.0000
     9 C9       6.3610   9.8000  16.4440   C.3       1 RES1   0.0000
    10 C10      6.0520   5.9450  14.5040   C.2       1 RES1   0.0000
    11 C11      9.7290  15.3920  20.1200   C.2       1 RES1   0.0000
    12 C12      6.6870   7.0250  13.8330   C.2       1 RES1   0.0000
    13 C13      5.4620   6.1520  15.7860   C.2       1 RES1   0.0000
    14 C14     10.1830  14.0980  20.5150   C.2       1 RES1   0.0000
    15 C15      9.3760  15.6430  18.7620   C.2       1 RES1   0.0000
    16 C16      6.7370   8.2910  14.4490   C.2       1 RES1   0.0000
    17 C17      5.5220   7.4220  16.3850   C.2       1 RES1   0.0000
    18 C18     10.2800  13.0590  19.5390   C.2       1 RES1   0.0000
    19 C19      9.4810  14.5980  17.8120   C.2       1 RES1   0.0000
    20 C20     10.0490  12.1890  17.1980   C.3       1 RES1   0.0000
    21 C21      8.1420  12.5760  13.8820   C.2       1 RES1   0.0000
    22 C22     10.5220  13.0430  13.4050   C.2       1 RES1   0.0000
    23 C23      9.8060  12.4650  15.7030   C.2       1 RES1   0.0000
    24 C24     12.3570  12.8680  15.1550   C.3       1 RES1   0.0000
    25 C25      6.1600   8.4860  15.7220   C.2       1 RES1   0.0000
    26 C26      9.9320  13.3110  18.2020   C.2       1 RES1   0.0000
    27 C27     10.8460  12.8030  14.8120   C.2       1 RES1   0.0000
@<TRIPOS>BOND
     1     1    21    2
     2     2    22    2
     3     3     8    1
     4     3     9    1
     5     4    21   am
     6     4    22   am
     7     5     8    1
     8     5    21   am
     9     5    23    1
    10     6    24    1
    11     7    24    1
    12     9    25    1
    13    10    12    2
    14    10    13    1
    15    11    14    2
    16    11    15    1
    17    12    16    1
    18    13    17    2
    19    14    18    1
    20    15    19    2
    21    16    25    2
    22    17    25    1
    23    18    26    2
    24    19    26    1
    25    20    23    1
    26    20    26    1
    27    22    27    1
    28    23    27    2
    29    24    27    1
@<TRIPOS>SUBSTRUCTURE
     1 RES1        1 GROUP             0 ****  ****    0  
@<TRIPOS>MOLECULE
4NCG:A:2KW601
    29    31     1     0     0
SMALL
NO_CHARGES
****
Generated from the CSD

@<TRIPOS>ATOM
     1 Cl1     10.6340  15.8350  20.0730   Cl        1 RES1   0.0000
     2 F2      12.8850  11.1500  15.5050   F         1 RES1   0.0000
     3 F3      12.8460  13.1220  16.3100   F         1 RES1   0.0000
     4 F4      13.0680  12.7160  14.1310   F         1 RES1   0.0000
     5 O5       5.8100   7.4340  14.5330   O.2       1 RES1   0.0000
     6 O6       8.0590  11.5470  17.2620   O.2       1 RES1   0.0000
     7 O7      10.9410  11.5770  17.4430   O.3       1 RES1   0.0000
     8 N8       9.5960  10.5800  23.0180   N.1       1 RES1   0.0000
     9 N9       6.3150   9.1330  13.0230   N.am      1 RES1   0.0000
    10 N10      6.5800  10.4640  13.0870   N.2       1 RES1   0.0000
    11 N11      8.1480  12.2050  15.0540   N.am      1 RES1   0.0000
    12 N12      6.1470   9.6680  15.1100   N.am      1 RES1   0.0000
    13 C13      5.9070   9.5720  16.5410   C.3       1 RES1   0.0000
    14 C14      9.8100  11.2250  22.0790   C.1       1 RES1   0.0000
    15 C15      8.8920  12.6100  13.9750   C.2       1 RES1   0.0000
    16 C16      6.7020  12.1530  14.8990   C.3       1 RES1   0.0000
    17 C17     10.2240  12.6870  14.0230   C.2       1 RES1   0.0000
    18 C18     10.7740  13.5590  18.7480   C.2       1 RES1   0.0000
    19 C19     10.2110  13.3790  21.0800   C.2       1 RES1   0.0000
    20 C20     10.3480  11.4060  19.7320   C.2       1 RES1   0.0000
    21 C21     10.5240  14.1370  19.9690   C.2       1 RES1   0.0000
    22 C22      6.0590   8.6030  14.2630   C.2       1 RES1   0.0000
    23 C23      8.7180  11.8710  16.2750   C.2       1 RES1   0.0000
    24 C24     10.6650  12.1900  18.6430   C.2       1 RES1   0.0000
    25 C25      6.4710  10.7630  14.3430   C.2       1 RES1   0.0000
    26 C26     10.2250  11.9420  16.3190   C.2       1 RES1   0.0000
    27 C27     10.1240  12.0100  20.9480   C.2       1 RES1   0.0000
    28 C28     10.9020  12.3250  15.2290   C.2       1 RES1   0.0000
    29 C29     12.3990  12.3740  15.2660   C.3       1 RES1   0.0000
@<TRIPOS>BOND
     1     1    21    1
     2     2    29    1
     3     3    29    1
     4     4    29    1
     5     5    22    2
     6     6    23    2
     7     7    24    1
     8     7    26    1
     9     8    14    3
    10     9    10    1
    11     9    22   am
    12    10    25    2
    13    11    15    1
    14    11    16    1
    15    11    23   am
    16    12    13    1
    17    12    22   am
    18    12    25    1
    19    14    27    1
    20    15    17    2
    21    16    25    1
    22    17    28    1
    23    18    21    2
    24    18    24    1
    25    19    21    1
    26    19    27    2
    27    20    24    2
    28    20    27    1
    29    23    26    1
    30    26    28    2
    31    28    29    1
@<TRIPOS>SUBSTRUCTURE
     1 RES1        1 GROUP             0 ****  ****    0  
@<TRIPOS>MOLECULE
2RF2:A:MRX561
    21    23     1     0     0
SMALL
NO_CHARGES
****
Generated from the CSD

@<TRIPOS>ATOM
     1 Br1      7.1270   9.8160  17.2620   Br        1 RES1   0.0000
     2 S2      12.2180  13.5360  16.1970   S.o2      1 RES1   0.0000
     3 O3      13.3000  14.3540  15.6050   O.2       1 RES1   0.0000
     4 O4      12.1650  12.1770  16.6720   O.2       1 RES1   0.0000
     5 O5      10.6970  16.0980  12.3620   O.2       1 RES1   0.0000
     6 N6      12.6190  16.0670  13.6120   N.am      1 RES1   0.0000
     7 N7       9.3680  14.2330  13.5690   N.2       1 RES1   0.0000
     8 N8      11.8830  14.4070  17.7030   N.3       1 RES1   0.0000
     9 C9      11.7210  15.9010  17.7170   C.3       1 RES1   0.0000
    10 C10     10.7420  13.9890  18.5630   C.3       1 RES1   0.0000
    11 C11     11.1220  16.3220  19.0320   C.3       1 RES1   0.0000
    12 C12     10.9470  14.9570  19.7260   C.3       1 RES1   0.0000
    13 C13      6.9680  11.7190  15.0610   C.2       1 RES1   0.0000
    14 C14      7.4170  12.6780  14.1400   C.2       1 RES1   0.0000
    15 C15      9.0860  11.8130  16.2200   C.2       1 RES1   0.0000
    16 C16      7.8010  11.2430  16.1120   C.2       1 RES1   0.0000
    17 C17     11.3180  15.5430  13.3380   C.2       1 RES1   0.0000
    18 C18     10.8070  13.6450  15.1460   C.2       1 RES1   0.0000
    19 C19      8.6860  13.2430  14.3030   C.2       1 RES1   0.0000
    20 C20     10.6280  14.5200  14.0350   C.2       1 RES1   0.0000
    21 C21      9.5610  12.8240  15.3210   C.2       1 RES1   0.0000
@<TRIPOS>BOND
     1     1    16    1
     2     2     3    2
     3     2     4    2
     4     2     8    1
     5     2    18    1
     6     5    17    2
     7     6    17   am
     8     7    19    1
     9     7    20    1
    10     8     9    1
    11     8    10    1
    12     9    11    1
    13    10    12    1
    14    11    12    1
    15    13    14    1
    16    13    16    2
    17    14    19    2
    18    15    16    1
    19    15    21    2
    20    17    20    1
    21    18    20    2
    22    18    21    1
    23    19    21    1
@<TRIPOS>SUBSTRUCTURE
     1 RES1        1 GROUP             0 ****  ****    0  
@<TRIPOS>MOLECULE
1C0U:A:BM5999
    23    26     1     0     0
SMALL
NO_CHARGES
****
Generated from the CSD

@<TRIPOS>ATOM
     1 S1      12.4490  11.5650  16.4140   S.3       1 RES1   0.0000
     2 O2      15.2090  15.2620  15.6060   O.2       1 RES1   0.0000
     3 O3      11.2870  14.1050  13.2280   O.2       1 RES1   0.0000
     4 O4      13.2980  15.9520  14.6380   O.3       1 RES1   0.0000
     5 N5      11.7480  13.8600  15.4930   N.am      1 RES1   0.0000
     6 C6      12.9680  17.0850  15.4410   C.3       1 RES1   0.0000
     7 C7      13.5570  12.4890  15.4030   C.3       1 RES1   0.0000
     8 C8      11.1320  14.9660  20.4900   C.2       1 RES1   0.0000
     9 C9      11.1680  15.7450  19.3190   C.2       1 RES1   0.0000
    10 C10     11.1210  13.5590  20.4170   C.2       1 RES1   0.0000
    11 C11      7.3850  12.3880  14.7080   C.2       1 RES1   0.0000
    12 C12      7.5450  11.8400  15.9980   C.2       1 RES1   0.0000
    13 C13     11.1920  15.0770  18.0840   C.2       1 RES1   0.0000
    14 C14     11.1490  12.9080  19.1680   C.2       1 RES1   0.0000
    15 C15      8.4640  13.0540  14.0910   C.2       1 RES1   0.0000
    16 C16      8.7810  11.9640  16.6730   C.2       1 RES1   0.0000
    17 C17     14.0500  15.0710  15.3180   C.2       1 RES1   0.0000
    18 C18     10.9570  13.7670  14.3400   C.2       1 RES1   0.0000
    19 C19     13.2530  13.8100  15.6790   C.2       1 RES1   0.0000
    20 C20     11.1860  13.6600  17.9770   C.2       1 RES1   0.0000
    21 C21      9.6970  13.1710  14.7670   C.2       1 RES1   0.0000
    22 C22      9.8570  12.6370  16.0510   C.2       1 RES1   0.0000
    23 C23     11.2410  12.9790  16.5580   C.3       1 RES1   0.0000
@<TRIPOS>BOND
     1     1     7    1
     2     1    23    1
     3     2    17    2
     4     3    18    2
     5     4     6    1
     6     4    17    1
     7     5    18   am
     8     5    19    1
     9     5    23    1
    10     7    19    1
    11     8     9    2
    12     8    10    1
    13     9    13    1
    14    10    14    2
    15    11    12    2
    16    11    15    1
    17    12    16    1
    18    13    20    2
    19    14    20    1
    20    15    21    2
    21    16    22    2
    22    17    19    1
    23    18    21    1
    24    20    23    1
    25    21    22    1
    26    22    23    1
@<TRIPOS>SUBSTRUCTURE
     1 RES1        1 GROUP             0 ****  ****    0  
@<TRIPOS>MOLECULE
3TAM:A:M06561
    28    31     1     0     0
SMALL
NO_CHARGES
****
Generated from the CSD

@<TRIPOS>ATOM
     1 Cl1     10.4550  15.8110  20.1000   Cl        1 RES1   0.0000
     2 O2       7.8520  11.5110  17.2770   O.2       1 RES1   0.0000
     3 O3      10.7110  11.4060  17.6380   O.3       1 RES1   0.0000
     4 N4       9.6950  10.4910  23.1770   N.1       1 RES1   0.0000
     5 N5       6.5600   9.3160  12.7880   N.2       1 RES1   0.0000
     6 N6       6.7620  10.6490  12.8610   N.2       1 RES1   0.0000
     7 N7       5.9710   7.4450  14.2210   N.2       1 RES1   0.0000
     8 N8       8.1400  12.2870  15.0470   N.am      1 RES1   0.0000
     9 C9      12.4760  12.0580  15.4850   C.3       1 RES1   0.0000
    10 C10      9.8770  11.1390  22.2670   C.1       1 RES1   0.0000
    11 C11      5.6800   7.1640  15.5670   C.2       1 RES1   0.0000
    12 C12      9.0340  12.5870  14.0430   C.2       1 RES1   0.0000
    13 C13      6.6840  12.3590  14.7240   C.3       1 RES1   0.0000
    14 C14      5.5610   8.0830  16.6380   C.2       1 RES1   0.0000
    15 C15     10.3890  12.5400  14.1840   C.2       1 RES1   0.0000
    16 C16      5.8190   9.4340  16.3070   C.2       1 RES1   0.0000
    17 C17     10.5690  13.4900  18.8280   C.2       1 RES1   0.0000
    18 C18     10.1580  13.3730  21.2780   C.2       1 RES1   0.0000
    19 C19     10.2550  11.3040  19.9130   C.2       1 RES1   0.0000
    20 C20     10.3870  14.1190  20.0790   C.2       1 RES1   0.0000
    21 C21      8.5980  11.8370  16.3220   C.2       1 RES1   0.0000
    22 C22     10.5030  12.0980  18.7840   C.2       1 RES1   0.0000
    23 C23     10.1370  11.7740  16.4470   C.2       1 RES1   0.0000
    24 C24      6.2150   8.7470  13.9800   C.2       1 RES1   0.0000
    25 C25      6.5070  10.9520  14.1820   C.2       1 RES1   0.0000
    26 C26     10.1020  11.9360  21.1470   C.2       1 RES1   0.0000
    27 C27     10.9720  12.0990  15.4310   C.2       1 RES1   0.0000
    28 C28      6.1610   9.7820  14.9400   C.2       1 RES1   0.0000
@<TRIPOS>BOND
     1     1    20    1
     2     2    21    2
     3     3    22    1
     4     3    23    1
     5     4    10    3
     6     5     6    1
     7     5    24    1
     8     6    25    2
     9     7    11    1
    10     7    24    2
    11     8    12    1
    12     8    13    1
    13     8    21   am
    14     9    27    1
    15    10    26    1
    16    11    14    2
    17    12    15    2
    18    13    25    1
    19    14    16    1
    20    15    27    1
    21    16    28    2
    22    17    20    2
    23    17    22    1
    24    18    20    1
    25    18    26    2
    26    19    22    2
    27    19    26    1
    28    21    23    1
    29    23    27    2
    30    24    28    1
    31    25    28    1
@<TRIPOS>SUBSTRUCTURE
     1 RES1        1 GROUP             0 ****  ****    0  
@<TRIPOS>MOLECULE
1C1C:A:612999
    22    23     1     0     0
SMALL
NO_CHARGES
****
Generated from the CSD

@<TRIPOS>ATOM
     1 S1      10.1280  12.1020  17.9890   S.3       1 RES1   0.0000
     2 O2       6.4770  12.8390  14.4680   O.2       1 RES1   0.0000
     3 O3      10.7020  13.9690  13.1720   O.2       1 RES1   0.0000
     4 O4       7.3960  10.5690  17.1740   O.3       1 RES1   0.0000
     5 N5       8.6030  13.3950  13.8370   N.am      1 RES1   0.0000
     6 N6       8.1910  12.5100  15.9920   N.am      1 RES1   0.0000
     7 C7       6.5400   8.3290  16.8410   C.3       1 RES1   0.0000
     8 C8      12.5120  11.5580  15.7770   C.3       1 RES1   0.0000
     9 C9      12.6090  14.0210  16.2930   C.3       1 RES1   0.0000
    10 C10      7.2060  11.9620  16.9580   C.3       1 RES1   0.0000
    11 C11      6.4200   9.7880  16.4780   C.3       1 RES1   0.0000
    12 C12     10.5320  14.9070  21.5310   C.3       1 RES1   0.0000
    13 C13      9.4370  13.8460  21.5900   C.3       1 RES1   0.0000
    14 C14     10.5640  15.5580  20.1550   C.3       1 RES1   0.0000
    15 C15      9.6410  12.8090  20.5170   C.3       1 RES1   0.0000
    16 C16     10.7840  14.5090  19.0880   C.3       1 RES1   0.0000
    17 C17      7.6720  12.9130  14.7450   C.2       1 RES1   0.0000
    18 C18      9.9820  13.4930  14.0400   C.2       1 RES1   0.0000
    19 C19      9.5670  12.5800  16.2810   C.2       1 RES1   0.0000
    20 C20      9.6880  13.4530  19.1390   C.3       1 RES1   0.0000
    21 C21     11.9990  12.9440  15.4630   C.3       1 RES1   0.0000
    22 C22     10.4680  13.0480  15.3350   C.2       1 RES1   0.0000
@<TRIPOS>BOND
     1     1    19    1
     2     1    20    1
     3     2    17    2
     4     3    18    2
     5     4    10    1
     6     4    11    1
     7     5    17   am
     8     5    18   am
     9     6    10    1
    10     6    17   am
    11     6    19    1
    12     7    11    1
    13     8    21    1
    14     9    21    1
    15    12    13    1
    16    12    14    1
    17    13    15    1
    18    14    16    1
    19    15    20    1
    20    16    20    1
    21    18    22    1
    22    19    22    2
    23    21    22    1
@<TRIPOS>SUBSTRUCTURE
     1 RES1        1 GROUP             0 ****  ****    0  
@<TRIPOS>MOLECULE
1JLQ:A:SBN999
    20    21     1     0     0
SMALL
NO_CHARGES
****
Generated from the CSD

@<TRIPOS>ATOM
     1 S1      11.5430  11.9100  16.2700   S.o2      1 RES1   0.0000
     2 O2      11.8720  10.8650  17.2520   O.2       1 RES1   0.0000
     3 O3      12.2910  11.8190  15.0140   O.2       1 RES1   0.0000
     4 N4      10.5990  14.0170  13.2270   N.1       1 RES1   0.0000
     5 N5       7.1510  13.1720  13.5250   N.pl3     1 RES1   0.0000
     6 C6      11.0620  15.0990  20.4520   C.3       1 RES1   0.0000
     7 C7      13.5430  16.8250  16.2510   C.3       1 RES1   0.0000
     8 C8       9.9700  13.3860  13.9480   C.1       1 RES1   0.0000
     9 C9       7.5540  11.0550  16.5980   C.2       1 RES1   0.0000
    10 C10      8.9600  11.1320  16.8170   C.2       1 RES1   0.0000
    11 C11      6.9590  11.7400  15.5160   C.2       1 RES1   0.0000
    12 C12     11.3800  13.6440  18.3810   C.2       1 RES1   0.0000
    13 C13     12.5460  14.4600  16.3680   C.2       1 RES1   0.0000
    14 C14     12.2770  15.9340  18.3260   C.2       1 RES1   0.0000
    15 C15     11.8540  13.4140  17.0360   C.2       1 RES1   0.0000
    16 C16      9.8320  11.8950  15.9650   C.2       1 RES1   0.0000
    17 C17      7.7650  12.5110  14.6330   C.2       1 RES1   0.0000
    18 C18     11.5860  14.8940  19.0250   C.2       1 RES1   0.0000
    19 C19     12.7710  15.7300  16.9910   C.2       1 RES1   0.0000
    20 C20      9.1880  12.5960  14.8490   C.2       1 RES1   0.0000
@<TRIPOS>BOND
     1     1     2    2
     2     1     3    2
     3     1    15    1
     4     1    16    1
     5     4     8    3
     6     5    17    1
     7     6    18    1
     8     7    19    1
     9     8    20    1
    10     9    10    2
    11     9    11    1
    12    10    16    1
    13    11    17    2
    14    12    15    2
    15    12    18    1
    16    13    15    1
    17    13    19    2
    18    14    18    2
    19    14    19    1
    20    16    20    2
    21    17    20    1
@<TRIPOS>SUBSTRUCTURE
     1 RES1        1 GROUP             0 ****  ****    0  
@<TRIPOS>MOLECULE
1C1B:A:GCA999
    24    25     1     0     0
SMALL
NO_CHARGES
****
Generated from the CSD

@<TRIPOS>ATOM
     1 O1       6.8010  12.7660  14.4890   O.2       1 RES1   0.0000
     2 O2      10.9640  13.9000  13.0330   O.2       1 RES1   0.0000
     3 O3       7.4280  10.6920  17.1750   O.3       1 RES1   0.0000
     4 N4       8.9030  13.3330  13.8010   N.am      1 RES1   0.0000
     5 N5       8.5410  12.5010  15.9910   N.am      1 RES1   0.0000
     6 C6       6.2440   8.6540  16.5600   C.3       1 RES1   0.0000
     7 C7      10.4830  16.6400  19.8630   C.3       1 RES1   0.0000
     8 C8       9.6450  12.5050  22.5890   C.3       1 RES1   0.0000
     9 C9      13.0970  11.7640  15.5620   C.3       1 RES1   0.0000
    10 C10     12.8640  14.2510  16.2080   C.3       1 RES1   0.0000
    11 C11      7.5260  12.1060  17.0280   C.3       1 RES1   0.0000
    12 C12      6.2130  10.1710  16.6130   C.3       1 RES1   0.0000
    13 C13     10.0670  14.5350  21.1810   C.2       1 RES1   0.0000
    14 C14     10.4310  12.0870  17.6280   C.3       1 RES1   0.0000
    15 C15     10.4040  14.3610  18.7910   C.2       1 RES1   0.0000
    16 C16     10.0020  12.3620  20.1070   C.2       1 RES1   0.0000
    17 C17      8.0000  12.8710  14.7510   C.2       1 RES1   0.0000
    18 C18     10.2870  13.4470  13.9530   C.2       1 RES1   0.0000
    19 C19      9.9400  12.5660  16.2470   C.2       1 RES1   0.0000
    20 C20     10.3110  15.1440  19.9480   C.2       1 RES1   0.0000
    21 C21      9.9130  13.1490  21.2600   C.2       1 RES1   0.0000
    22 C22     12.3670  13.1110  15.3400   C.3       1 RES1   0.0000
    23 C23     10.2560  12.9640  18.8660   C.2       1 RES1   0.0000
    24 C24     10.8260  13.0340  15.2430   C.2       1 RES1   0.0000
@<TRIPOS>BOND
     1     1    17    2
     2     2    18    2
     3     3    11    1
     4     3    12    1
     5     4    17   am
     6     4    18   am
     7     5    11    1
     8     5    17   am
     9     5    19    1
    10     6    12    1
    11     7    20    1
    12     8    21    1
    13     9    22    1
    14    10    22    1
    15    13    20    2
    16    13    21    1
    17    14    19    1
    18    14    23    1
    19    15    20    1
    20    15    23    2
    21    16    21    2
    22    16    23    1
    23    18    24    1
    24    19    24    2
    25    22    24    1
@<TRIPOS>SUBSTRUCTURE
     1 RES1        1 GROUP             0 ****  ****    0  
@<TRIPOS>MOLECULE
1S1W:A:UC1999
    22    23     1     0     0
SMALL
NO_CHARGES
****
Generated from the CSD

@<TRIPOS>ATOM
     1 Cl1      7.0900  10.3710  17.1660   Cl        1 RES1   0.0000
     2 S2      11.2470  16.0620  12.2300   S.2       1 RES1   0.0000
     3 O3      13.9220  14.0980  15.5880   O.3       1 RES1   0.0000
     4 O4       9.4210  12.1980  17.9400   O.3       1 RES1   0.0000
     5 N5       9.8600  14.0180  13.2810   N.am      1 RES1   0.0000
     6 C6      13.0850  16.3790  15.2480   C.3       1 RES1   0.0000
     7 C7      10.7470  15.9810  20.1730   C.3       1 RES1   0.0000
     8 C8      10.5190  13.7160  21.1990   C.3       1 RES1   0.0000
     9 C9      13.7160  12.8040  15.1260   C.2       1 RES1   0.0000
    10 C10     10.7700  12.5090  18.3630   C.3       1 RES1   0.0000
    11 C11      7.5610  11.5500  14.7710   C.2       1 RES1   0.0000
    12 C12     10.8110  13.9960  18.7350   C.2       1 RES1   0.0000
    13 C13     12.7390  12.7710  14.2260   C.2       1 RES1   0.0000
    14 C14      8.2190  12.3970  13.8850   C.2       1 RES1   0.0000
    15 C15      9.6840  13.1340  15.6750   C.2       1 RES1   0.0000
    16 C16     11.0980  14.7130  13.2480   C.2       1 RES1   0.0000
    17 C17      7.9520  11.4650  16.1240   C.2       1 RES1   0.0000
    18 C18     13.0060  14.9010  14.9180   C.2       1 RES1   0.0000
    19 C19      9.0250  12.2700  16.5880   C.2       1 RES1   0.0000
    20 C20      9.2870  13.2070  14.3160   C.2       1 RES1   0.0000
    21 C21     10.6970  14.5210  19.9570   C.2       1 RES1   0.0000
    22 C22     12.2470  14.1850  14.0870   C.2       1 RES1   0.0000
@<TRIPOS>BOND
     1     1    17    1
     2     2    16    2
     3     3     9    1
     4     3    18    1
     5     4    10    1
     6     4    19    1
     7     5    16   am
     8     5    20    1
     9     6    18    1
    10     7    21    1
    11     8    21    1
    12     9    13    2
    13    10    12    1
    14    11    14    2
    15    11    17    1
    16    12    21    2
    17    13    22    1
    18    14    20    1
    19    15    19    1
    20    15    20    2
    21    16    22    1
    22    17    19    2
    23    18    22    2
@<TRIPOS>SUBSTRUCTURE
     1 RES1        1 GROUP             0 ****  ****    0  
@<TRIPOS>MOLECULE
2YNF:A:WHU1563
    29    31     1     0     0
SMALL
NO_CHARGES
****
Generated from the CSD

@<TRIPOS>ATOM
     1 Br1     12.7970  12.2120  15.3780   Br        1 RES1   0.0000
     2 Cl2     10.1870  16.0020  19.9110   Cl        1 RES1   0.0000
     3 Cl3      5.7510   8.8130  16.4220   Cl        1 RES1   0.0000
     4 F4       8.1340  11.9710  16.9740   F         1 RES1   0.0000
     5 O5       7.0130  10.9430  12.4680   O.2       1 RES1   0.0000
     6 O6      10.8980  11.7970  17.0990   O.3       1 RES1   0.0000
     7 N7       9.8590  10.7090  22.8410   N.1       1 RES1   0.0000
     8 N8       6.3270   5.6130  12.5860   N.pl3     1 RES1   0.0000
     9 N9       6.3800  11.3030  14.6500   N.am      1 RES1   0.0000
    10 N10      6.0070   6.9330  14.5490   N.2       1 RES1   0.0000
    11 N11      6.5300   8.0550  12.7010   N.2       1 RES1   0.0000
    12 C12     10.0100  11.3100  21.8670   C.1       1 RES1   0.0000
    13 C13      6.7050  12.7450  14.6570   C.3       1 RES1   0.0000
    14 C14     10.4400  12.9170  13.7120   C.2       1 RES1   0.0000
    15 C15      9.0440  13.0060  13.6290   C.2       1 RES1   0.0000
    16 C16     10.5350  13.6930  18.4740   C.2       1 RES1   0.0000
    17 C17     10.1100  13.4650  20.8380   C.2       1 RES1   0.0000
    18 C18     10.4250  11.4730  19.4470   C.2       1 RES1   0.0000
    19 C19     10.9910  12.4810  14.9140   C.2       1 RES1   0.0000
    20 C20     10.2900  14.2580  19.7170   C.2       1 RES1   0.0000
    21 C21      6.0660   8.2720  14.8170   C.2       1 RES1   0.0000
    22 C22      8.8530  12.3010  15.8780   C.2       1 RES1   0.0000
    23 C23      6.5930  10.4850  13.5330   C.2       1 RES1   0.0000
    24 C24      6.2930   6.8230  13.2610   C.2       1 RES1   0.0000
    25 C25     10.5990  12.2980  18.3530   C.2       1 RES1   0.0000
    26 C26     10.2200  12.1860  15.9790   C.2       1 RES1   0.0000
    27 C27     10.1920  12.0760  20.6800   C.2       1 RES1   0.0000
    28 C28      8.2240  12.7280  14.7190   C.2       1 RES1   0.0000
    29 C29      6.3520   9.0410  13.7140   C.2       1 RES1   0.0000
@<TRIPOS>BOND
     1     1    19    1
     2     2    20    1
     3     3    21    1
     4     4    22    1
     5     5    23    2
     6     6    25    1
     7     6    26    1
     8     7    12    3
     9     8    24    1
    10     9    13    1
    11     9    23   am
    12    10    21    1
    13    10    24    2
    14    11    24    1
    15    11    29    1
    16    12    27    1
    17    13    28    1
    18    14    15    2
    19    14    19    1
    20    15    28    1
    21    16    20    2
    22    16    25    1
    23    17    20    1
    24    17    27    2
    25    18    25    2
    26    18    27    1
    27    19    26    2
    28    21    29    2
    29    22    26    1
    30    22    28    2
    31    23    29    1
@<TRIPOS>SUBSTRUCTURE
     1 RES1        1 GROUP             0 ****  ****    0  
@<TRIPOS>MOLECULE
1ODX:A:0E8201
    39    40     1     0     0
SMALL
NO_CHARGES
****
Generated from the CSD

@<TRIPOS>ATOM
     1 O1      15.9640  10.8410  22.3170   O.2       1 RES1   0.0000
     2 O2      13.6610  11.5620  16.7370   O.2       1 RES1   0.0000
     3 O3      11.8660  12.5990  20.9600   O.3       1 RES1   0.0000
     4 O4      16.0660  14.4580  19.1960   O.3       1 RES1   0.0000
     5 O5      16.4680  11.7850  24.3180   O.3       1 RES1   0.0000
     6 O6      12.2530  12.8010  15.3670   O.3       1 RES1   0.0000
     7 N7      13.5380  14.8990  20.4650   N.2       1 RES1   0.0000
     8 N8      14.3590  11.9070  23.6300   N.am      1 RES1   0.0000
     9 N9      13.9930  13.8050  16.2660   N.am      1 RES1   0.0000
    10 C10     17.9110   9.7690  24.0630   C.3       1 RES1   0.0000
    11 C11     18.5470  11.7790  25.4300   C.3       1 RES1   0.0000
    12 C12     18.5780  11.8760  22.9980   C.3       1 RES1   0.0000
    13 C13     10.5020  11.3940  16.4610   C.3       1 RES1   0.0000
    14 C14     11.8660  10.4640  14.6260   C.3       1 RES1   0.0000
    15 C15     10.2700  12.3200  14.1940   C.3       1 RES1   0.0000
    16 C16     13.8540  13.9090  21.5160   C.3       1 RES1   0.0000
    17 C17     13.6910  14.3510  19.0930   C.3       1 RES1   0.0000
    18 C18     13.2240   7.4150  24.7780   C.2       1 RES1   0.0000
    19 C19     17.3930  12.5390  12.6470   C.2       1 RES1   0.0000
    20 C20     12.6680   7.6230  23.5120   C.2       1 RES1   0.0000
    21 C21     13.3290   8.4250  25.7110   C.2       1 RES1   0.0000
    22 C22     17.0200  11.7980  13.7800   C.2       1 RES1   0.0000
    23 C23     17.3600  13.9370  12.6520   C.2       1 RES1   0.0000
    24 C24     12.2340   8.8950  23.1410   C.2       1 RES1   0.0000
    25 C25     12.8920   9.7000  25.3650   C.2       1 RES1   0.0000
    26 C26     16.6830  12.5100  14.9320   C.2       1 RES1   0.0000
    27 C27     16.9610  14.6360  13.8060   C.2       1 RES1   0.0000
    28 C28     11.9330  11.3450  23.7210   C.3       1 RES1   0.0000
    29 C29     16.2490  14.6670  16.2240   C.3       1 RES1   0.0000
    30 C30     15.5540  11.4590  23.2950   C.2       1 RES1   0.0000
    31 C31     13.3680  12.6460  16.2070   C.2       1 RES1   0.0000
    32 C32     12.6680  13.0520  22.0620   C.3       1 RES1   0.0000
    33 C33     14.9470  14.7420  18.3710   C.3       1 RES1   0.0000
    34 C34     13.1320  11.8030  22.8230   C.3       1 RES1   0.0000
    35 C35     15.1970  13.9520  17.0540   C.3       1 RES1   0.0000
    36 C36     12.3290   9.9290  24.1060   C.2       1 RES1   0.0000
    37 C37     16.6120  13.9150  14.9570   C.2       1 RES1   0.0000
    38 C38     17.8320  11.2770  24.1960   C.3       1 RES1   0.0000
    39 C39     11.2700  11.7530  15.1870   C.3       1 RES1   0.0000
@<TRIPOS>BOND
     1     1    30    2
     2     2    31    2
     3     3    32    1
     4     4    33    1
     5     5    30    1
     6     5    38    1
     7     6    31    1
     8     6    39    1
     9     7    16    1
    10     7    17    1
    11     8    30   am
    12     8    34    1
    13     9    31   am
    14     9    35    1
    15    10    38    1
    16    11    38    1
    17    12    38    1
    18    13    39    1
    19    14    39    1
    20    15    39    1
    21    16    32    1
    22    17    33    1
    23    18    20    2
    24    18    21    1
    25    19    22    2
    26    19    23    1
    27    20    24    1
    28    21    25    2
    29    22    26    1
    30    23    27    2
    31    24    36    2
    32    25    36    1
    33    26    37    2
    34    27    37    1
    35    28    34    1
    36    28    36    1
    37    29    35    1
    38    29    37    1
    39    32    34    1
    40    33    35    1
@<TRIPOS>SUBSTRUCTURE
     1 RES1        1 GROUP             0 ****  ****    0  
@<TRIPOS>MOLECULE
3NBP:A:JGZ562
    34    37     1     0     0
SMALL
NO_CHARGES
****
Generated from the CSD

@<TRIPOS>ATOM
     1 S1       5.0730   5.0670  15.8130   S.o2      1 RES1   0.0000
     2 O2       5.2270   4.8970  17.2000   O.2       1 RES1   0.0000
     3 O3       3.8320   4.8960  15.1590   O.2       1 RES1   0.0000
     4 O4      12.6620  14.9870  16.5840   O.3       1 RES1   0.0000
     5 N5       6.1150   4.0730  14.9870   N.3       1 RES1   0.0000
     6 N6       9.4350  10.7100  20.7350   N.1       1 RES1   0.0000
     7 N7      10.6900  15.6440  13.0520   N.2       1 RES1   0.0000
     8 N8      10.8450  14.6440  15.0950   N.2       1 RES1   0.0000
     9 N9       8.9640  14.1340  13.7600   N.2       1 RES1   0.0000
    10 N10      7.0120  10.6350  14.6220   N.3       1 RES1   0.0000
    11 C11     11.4710  16.0580  19.0530   C.3       1 RES1   0.0000
    12 C12     12.5490  12.1330  15.9670   C.3       1 RES1   0.0000
    13 C13      9.9790  11.4510  20.0730   C.1       1 RES1   0.0000
    14 C14     11.8740  16.2780  13.2870   C.2       1 RES1   0.0000
    15 C15      6.5090  11.7900  15.3860   C.3       1 RES1   0.0000
    16 C16      8.4580  10.6470  14.7200   C.3       1 RES1   0.0000
    17 C17     12.5930  16.0940  14.4850   C.2       1 RES1   0.0000
    18 C18      6.2320   7.0230  14.2560   C.2       1 RES1   0.0000
    19 C19      5.4590   7.7240  16.4530   C.2       1 RES1   0.0000
    20 C20      7.0220  13.1190  14.7930   C.3       1 RES1   0.0000
    21 C21      9.0360  11.9020  14.0650   C.3       1 RES1   0.0000
    22 C22      6.6910   8.3120  14.0000   C.2       1 RES1   0.0000
    23 C23      5.9130   9.0110  16.1720   C.2       1 RES1   0.0000
    24 C24     10.7540  13.7310  19.5610   C.2       1 RES1   0.0000
    25 C25     11.2450  11.9150  18.0570   C.2       1 RES1   0.0000
    26 C26      5.6140   6.7230  15.4900   C.2       1 RES1   0.0000
    27 C27     12.0390  15.2360  15.4090   C.2       1 RES1   0.0000
    28 C28     10.1640  14.8050  13.9610   C.2       1 RES1   0.0000
    29 C29     12.0070  14.1190  17.4860   C.2       1 RES1   0.0000
    30 C30      8.5340  13.1640  14.7180   C.3       1 RES1   0.0000
    31 C31      6.5350   9.3360  14.9440   C.2       1 RES1   0.0000
    32 C32     10.6650  12.3860  19.2350   C.2       1 RES1   0.0000
    33 C33     11.4080  14.5920  18.6910   C.2       1 RES1   0.0000
    34 C34     11.9170  12.7400  17.2080   C.2       1 RES1   0.0000
@<TRIPOS>BOND
     1     1     2    2
     2     1     3    2
     3     1     5    1
     4     1    26    1
     5     4    27    1
     6     4    29    1
     7     6    13    3
     8     7    14    2
     9     7    28    1
    10     8    27    1
    11     8    28    2
    12     9    28    1
    13     9    30    1
    14    10    15    1
    15    10    16    1
    16    10    31    1
    17    11    33    1
    18    12    34    1
    19    13    32    1
    20    14    17    1
    21    15    20    1
    22    16    21    1
    23    17    27    2
    24    18    22    2
    25    18    26    1
    26    19    23    1
    27    19    26    2
    28    20    30    1
    29    21    30    1
    30    22    31    1
    31    23    31    2
    32    24    32    2
    33    24    33    1
    34    25    32    1
    35    25    34    2
    36    29    33    2
    37    29    34    1
@<TRIPOS>SUBSTRUCTURE
     1 RES1        1 GROUP             0 ****  ****    0  
@<TRIPOS>MOLECULE
1FKO:A:EFZ999
    21    23     1     0     0
SMALL
NO_CHARGES
****
Generated from the CSD

@<TRIPOS>ATOM
     1 Cl1      7.0050  10.1690  17.4300   Cl        1 RES1   0.0000
     2 F2      12.3440  11.3810  16.4520   F         1 RES1   0.0000
     3 F3      13.3620  13.0320  15.5470   F         1 RES1   0.0000
     4 F4      12.0600  11.8060  14.3720   F         1 RES1   0.0000
     5 O5      10.7940  15.6620  13.2480   O.2       1 RES1   0.0000
     6 O6      11.1520  14.5210  15.1110   O.3       1 RES1   0.0000
     7 N7       9.7370  13.6690  13.4660   N.am      1 RES1   0.0000
     8 C8       7.2100  11.3650  15.0340   C.2       1 RES1   0.0000
     9 C9      12.3350  15.2900  20.1650   C.2       1 RES1   0.0000
    10 C10     11.1040  15.6520  20.1760   C.2       1 RES1   0.0000
    11 C11      7.8270  12.1880  14.0700   C.2       1 RES1   0.0000
    12 C12     11.2710  14.0090  18.4810   C.1       1 RES1   0.0000
    13 C13     11.1570  13.7000  17.3530   C.1       1 RES1   0.0000
    14 C14      8.9840  11.8020  16.6100   C.2       1 RES1   0.0000
    15 C15      7.7880  11.1790  16.2770   C.2       1 RES1   0.0000
    16 C16     10.5700  14.6860  13.8790   C.2       1 RES1   0.0000
    17 C17     11.4200  14.4580  20.1240   C.3       1 RES1   0.0000
    18 C18      9.0470  12.8310  14.3970   C.2       1 RES1   0.0000
    19 C19      9.6250  12.6080  15.6480   C.2       1 RES1   0.0000
    20 C20     12.2050  12.3670  15.5700   C.3       1 RES1   0.0000
    21 C21     11.0010  13.3080  15.9320   C.3       1 RES1   0.0000
@<TRIPOS>BOND
     1     1    15    1
     2     2    20    1
     3     3    20    1
     4     4    20    1
     5     5    16    2
     6     6    16    1
     7     6    21    1
     8     7    16   am
     9     7    18    1
    10     8    11    1
    11     8    15    2
    12     9    10    2
    13     9    17    1
    14    10    17    1
    15    11    18    2
    16    12    13    3
    17    12    17    1
    18    13    21    1
    19    14    15    1
    20    14    19    2
    21    18    19    1
    22    19    21    1
    23    20    21    1
@<TRIPOS>SUBSTRUCTURE
     1 RES1        1 GROUP             0 ****  ****    0  
@<TRIPOS>MOLECULE
3DRR:A:R8E601
    29    32     1     0     0
SMALL
NO_CHARGES
****
Generated from the CSD

@<TRIPOS>ATOM
     1 Cl1     10.6030  16.1900  19.7770   Cl        1 RES1   0.0000
     2 Cl2     12.9820  12.1210  15.2570   Cl        1 RES1   0.0000
     3 O3       7.2660  13.2500  14.3780   O.3       1 RES1   0.0000
     4 O4      11.1060  12.0750  17.1860   O.3       1 RES1   0.0000
     5 N5       9.9320  10.7600  22.4180   N.1       1 RES1   0.0000
     6 N6       5.4790   7.2930  17.0260   N.pl3     1 RES1   0.0000
     7 N7       6.6010   9.1860  12.8370   N.2       1 RES1   0.0000
     8 N8       6.7490  10.4840  12.3680   N.2       1 RES1   0.0000
     9 N9       6.0300   8.2290  14.9540   N.2       1 RES1   0.0000
    10 C10      6.4800  12.8540  13.3260   C.3       1 RES1   0.0000
    11 C11     10.0920  11.4920  21.6310   C.1       1 RES1   0.0000
    12 C12     10.8460  12.8190  13.5840   C.2       1 RES1   0.0000
    13 C13      9.4910  13.0770  13.4300   C.2       1 RES1   0.0000
    14 C14      5.6640   9.7510  16.7670   C.2       1 RES1   0.0000
    15 C15      5.8490  10.8170  15.8820   C.2       1 RES1   0.0000
    16 C16     10.8450  13.8620  18.6400   C.2       1 RES1   0.0000
    17 C17      9.1060  12.6750  15.7700   C.2       1 RES1   0.0000
    18 C18     10.2540  13.7060  21.0160   C.2       1 RES1   0.0000
    19 C19     10.5770  11.7330  19.4980   C.2       1 RES1   0.0000
    20 C20     10.5620  14.4340  19.8750   C.2       1 RES1   0.0000
    21 C21     11.2900  12.4980  14.8750   C.2       1 RES1   0.0000
    22 C22      8.6160  13.0080  14.5040   C.2       1 RES1   0.0000
    23 C23     10.8400  12.5450  18.4360   C.2       1 RES1   0.0000
    24 C24      5.7180   8.4760  16.2170   C.2       1 RES1   0.0000
    25 C25     10.4760  12.4320  15.9580   C.2       1 RES1   0.0000
    26 C26      6.2610   9.2100  14.1120   C.2       1 RES1   0.0000
    27 C27      6.4840  11.3530  13.3860   C.2       1 RES1   0.0000
    28 C28     10.2750  12.3080  20.7480   C.2       1 RES1   0.0000
    29 C29      6.1780  10.5020  14.5570   C.2       1 RES1   0.0000
@<TRIPOS>BOND
     1     1    20    1
     2     2    21    1
     3     3    10    1
     4     3    22    1
     5     4    23    1
     6     4    25    1
     7     5    11    3
     8     6    24    1
     9     7     8    1
    10     7    26    1
    11     8    27    2
    12     9    24    1
    13     9    26    2
    14    10    27    1
    15    11    28    1
    16    12    13    2
    17    12    21    1
    18    13    22    1
    19    14    15    1
    20    14    24    2
    21    15    29    2
    22    16    20    2
    23    16    23    1
    24    17    22    2
    25    17    25    1
    26    18    20    1
    27    18    28    2
    28    19    23    2
    29    19    28    1
    30    21    25    2
    31    26    29    1
    32    27    29    1
@<TRIPOS>SUBSTRUCTURE
     1 RES1        1 GROUP             0 ****  ****    0  
@<TRIPOS>MOLECULE
3FFI:A:3OB561
    33    36     1     0     0
SMALL
NO_CHARGES
****
Generated from the CSD

@<TRIPOS>ATOM
     1 Cl1     10.8050  16.5980  19.7700   Cl        1 RES1   0.0000
     2 O2       7.0250  11.7840  12.3880   O.2       1 RES1   0.0000
     3 O3      11.1420  14.1590  12.6590   O.2       1 RES1   0.0000
     4 O4      11.1100  12.3780  16.9890   O.3       1 RES1   0.0000
     5 N5       9.5460  11.2200  22.4730   N.1       1 RES1   0.0000
     6 N6       9.1880  13.5620  13.5480   N.am      1 RES1   0.0000
     7 N7      12.6070  13.4220  14.8950   N.pl3     1 RES1   0.0000
     8 N8       6.2770  10.5600  14.0740   N.am      1 RES1   0.0000
     9 C9      13.2230  14.6660  15.3640   C.3       1 RES1   0.0000
    10 C10     13.4530  12.2890  14.5270   C.3       1 RES1   0.0000
    11 C11      9.8390  11.8880  21.6040   C.1       1 RES1   0.0000
    12 C12      5.9250  10.4380  15.5080   C.3       1 RES1   0.0000
    13 C13      6.0850   9.4050  13.1800   C.3       1 RES1   0.0000
    14 C14      6.5040   5.6880  13.7030   C.2       1 RES1   0.0000
    15 C15      6.7330   5.6040  15.0710   C.2       1 RES1   0.0000
    16 C16      6.5930   9.2230  16.1530   C.3       1 RES1   0.0000
    17 C17      6.2980   6.9280  13.1120   C.2       1 RES1   0.0000
    18 C18      6.7550   6.7560  15.8410   C.2       1 RES1   0.0000
    19 C19     10.9420  14.3180  18.3630   C.2       1 RES1   0.0000
    20 C20     10.3100  14.0980  20.6700   C.2       1 RES1   0.0000
    21 C21      6.9730  12.9250  14.4300   C.3       1 RES1   0.0000
    22 C22     10.4780  12.1400  19.2640   C.2       1 RES1   0.0000
    23 C23      9.0640  12.6500  15.7290   C.2       1 RES1   0.0000
    24 C24     10.6740  14.8830  19.5950   C.2       1 RES1   0.0000
    25 C25      6.7460  11.7160  13.5650   C.2       1 RES1   0.0000
    26 C26     10.5300  13.6970  13.6150   C.2       1 RES1   0.0000
    27 C27     10.8410  12.9440  18.1950   C.2       1 RES1   0.0000
    28 C28     10.4690  12.7740  15.8540   C.2       1 RES1   0.0000
    29 C29      8.4650  13.0520  14.5840   C.2       1 RES1   0.0000
    30 C30     10.2130  12.7170  20.5050   C.2       1 RES1   0.0000
    31 C31     11.2070  13.3000  14.7910   C.2       1 RES1   0.0000
    32 C32      6.3240   8.0910  13.8850   C.2       1 RES1   0.0000
    33 C33      6.5490   8.0060  15.2510   C.2       1 RES1   0.0000
@<TRIPOS>BOND
     1     1    24    1
     2     2    25    2
     3     3    26    2
     4     4    27    1
     5     4    28    1
     6     5    11    3
     7     6    26   am
     8     6    29    1
     9     7     9    1
    10     7    10    1
    11     7    31    1
    12     8    12    1
    13     8    13    1
    14     8    25   am
    15    11    30    1
    16    12    16    1
    17    13    32    1
    18    14    15    2
    19    14    17    1
    20    15    18    1
    21    16    33    1
    22    17    32    2
    23    18    33    2
    24    19    24    2
    25    19    27    1
    26    20    24    1
    27    20    30    2
    28    21    25    1
    29    21    29    1
    30    22    27    2
    31    22    30    1
    32    23    28    1
    33    23    29    2
    34    26    31    1
    35    28    31    2
    36    32    33    1
@<TRIPOS>SUBSTRUCTURE
     1 RES1        1 GROUP             0 ****  ****    0  
@<TRIPOS>MOLECULE
1TKX:A:GWB999
    21    23     1     0     0
SMALL
NO_CHARGES
****
Generated from the CSD

@<TRIPOS>ATOM
     1 F1       7.3820  11.1980  17.7200   F         1 RES1   0.0000
     2 O2      11.3350  15.2810  12.5920   O.2       1 RES1   0.0000
     3 O3      11.9730  13.3000  16.9290   O.3       1 RES1   0.0000
     4 N4       9.6050  14.1180  13.5030   N.am      1 RES1   0.0000
     5 C5      13.2860  16.4140  14.6770   C.3       1 RES1   0.0000
     6 C6      14.2690  14.1010  14.2800   C.3       1 RES1   0.0000
     7 C7      11.7090  14.1400  18.0700   C.1       1 RES1   0.0000
     8 C8       7.1430  12.2100  15.5260   C.2       1 RES1   0.0000
     9 C9      11.4730  14.7970  18.9830   C.1       1 RES1   0.0000
    10 C10      7.7140  12.9390  14.4530   C.2       1 RES1   0.0000
    11 C11     10.0100  16.6050  19.8660   C.3       1 RES1   0.0000
    12 C12      9.7700  15.3820  20.7210   C.3       1 RES1   0.0000
    13 C13      9.2840  12.3120  16.7440   C.2       1 RES1   0.0000
    14 C14      7.9320  11.8970  16.6700   C.2       1 RES1   0.0000
    15 C15     10.9150  14.6200  13.5480   C.2       1 RES1   0.0000
    16 C16     11.1980  13.5460  15.7800   C.2       1 RES1   0.0000
    17 C17      9.0710  13.3630  14.5240   C.2       1 RES1   0.0000
    18 C18     13.1680  14.9130  14.9700   C.3       1 RES1   0.0000
    19 C19     11.1290  15.7640  20.3170   C.3       1 RES1   0.0000
    20 C20      9.8770  13.0550  15.6850   C.2       1 RES1   0.0000
    21 C21     11.7510  14.3220  14.7590   C.2       1 RES1   0.0000
@<TRIPOS>BOND
     1     1    14    1
     2     2    15    2
     3     3     7    1
     4     3    16    1
     5     4    15   am
     6     4    17    1
     7     5    18    1
     8     6    18    1
     9     7     9    3
    10     8    10    1
    11     8    14    2
    12     9    19    1
    13    10    17    2
    14    11    12    1
    15    11    19    1
    16    12    19    1
    17    13    14    1
    18    13    20    2
    19    15    21    1
    20    16    20    1
    21    16    21    2
    22    17    20    1
    23    18    21    1
@<TRIPOS>SUBSTRUCTURE
     1 RES1        1 GROUP             0 ****  ****    0  
@<TRIPOS>MOLECULE
5K14:A:IB1601
    27    29     1     0     0
SMALL
NO_CHARGES
****
Generated from the CSD

@<TRIPOS>ATOM
     1 F1      12.9120  13.5310  15.7750   F         1 RES1   0.0000
     2 F2      12.3530  17.7940  17.5550   F         1 RES1   0.0000
     3 O3      14.2790  16.9150  15.5550   O.2       1 RES1   0.0000
     4 O4      10.9660  13.9730  20.0850   O.3       1 RES1   0.0000
     5 N5       6.8490   9.8510  17.5020   N.1       1 RES1   0.0000
     6 N6      11.0260  15.7270  11.8770   N.2       1 RES1   0.0000
     7 N7       9.5680  14.3180  13.0740   N.2       1 RES1   0.0000
     8 N8      11.4170  15.3050  14.1910   N.2       1 RES1   0.0000
     9 C9      10.8670  14.7520  21.2660   C.3       1 RES1   0.0000
    10 C10      7.3310  10.6170  16.7630   C.1       1 RES1   0.0000
    11 C11     12.1280  16.5280  11.8900   C.2       1 RES1   0.0000
    12 C12     12.9210  16.7560  13.0050   C.2       1 RES1   0.0000
    13 C13      7.7490  12.9380  13.8470   C.2       1 RES1   0.0000
    14 C14      9.7760  12.9390  15.1190   C.2       1 RES1   0.0000
    15 C15      7.1680  12.0220  14.7400   C.2       1 RES1   0.0000
    16 C16      9.2080  12.0230  16.0220   C.2       1 RES1   0.0000
    17 C17     11.9380  13.7160  17.8940   C.2       1 RES1   0.0000
    18 C18     11.6500  15.9120  18.8570   C.2       1 RES1   0.0000
    19 C19     12.5050  14.3070  16.7740   C.2       1 RES1   0.0000
    20 C20     12.2150  16.4710  17.7020   C.2       1 RES1   0.0000
    21 C21     13.2330  16.2690  15.4510   C.2       1 RES1   0.0000
    22 C22     10.7020  15.1290  13.0580   C.2       1 RES1   0.0000
    23 C23     11.5210  14.5150  18.9560   C.2       1 RES1   0.0000
    24 C24      9.0580  13.4170  14.0190   C.2       1 RES1   0.0000
    25 C25     12.5130  16.1090  14.1550   C.2       1 RES1   0.0000
    26 C26      7.9060  11.5570  15.8400   C.2       1 RES1   0.0000
    27 C27     12.6560  15.6720  16.6630   C.2       1 RES1   0.0000
@<TRIPOS>BOND
     1     1    19    1
     2     2    20    1
     3     3    21    2
     4     4     9    1
     5     4    23    1
     6     5    10    3
     7     6    11    2
     8     6    22    1
     9     7    22    1
    10     7    24    1
    11     8    22    2
    12     8    25    1
    13    10    26    1
    14    11    12    1
    15    12    25    2
    16    13    15    2
    17    13    24    1
    18    14    16    1
    19    14    24    2
    20    15    26    1
    21    16    26    2
    22    17    19    2
    23    17    23    1
    24    18    20    1
    25    18    23    2
    26    19    27    1
    27    20    27    2
    28    21    25    1
    29    21    27    1
@<TRIPOS>SUBSTRUCTURE
     1 RES1        1 GROUP             0 ****  ****    0  
@<TRIPOS>MOLECULE
1TKT:A:H12999
    22    24     1     0     0
SMALL
NO_CHARGES
****
Generated from the CSD

@<TRIPOS>ATOM
     1 Cl1      6.7490  10.2600  17.2280   Cl        1 RES1   0.0000
     2 O2      10.8020  15.7110  13.0540   O.2       1 RES1   0.0000
     3 O3      11.1400  13.2780  17.1370   O.3       1 RES1   0.0000
     4 N4       9.1420  14.1900  13.5130   N.am      1 RES1   0.0000
     5 C5      14.0000  13.1220  15.5450   C.3       1 RES1   0.0000
     6 C6      13.4500  14.1970  14.6180   C.3       1 RES1   0.0000
     7 C7      10.9870  14.5780  21.3290   C.3       1 RES1   0.0000
     8 C8      10.7790  15.6670  20.2590   C.3       1 RES1   0.0000
     9 C9      10.1850  13.3040  20.9680   C.3       1 RES1   0.0000
    10 C10      6.8500  11.6400  14.9260   C.2       1 RES1   0.0000
    11 C11     12.4180  15.0660  15.3180   C.3       1 RES1   0.0000
    12 C12     11.3190  15.1920  18.8850   C.3       1 RES1   0.0000
    13 C13     10.5630  12.7460  19.5660   C.3       1 RES1   0.0000
    14 C14      7.4220  12.6050  14.0390   C.2       1 RES1   0.0000
    15 C15      8.6600  12.0050  16.4930   C.2       1 RES1   0.0000
    16 C16      7.4700  11.3550  16.1480   C.2       1 RES1   0.0000
    17 C17     10.3410  14.8470  13.8150   C.2       1 RES1   0.0000
    18 C18     10.6510  13.8320  18.3620   C.3       1 RES1   0.0000
    19 C19     10.4410  13.6060  15.9580   C.2       1 RES1   0.0000
    20 C20      8.6050  13.2620  14.3850   C.2       1 RES1   0.0000
    21 C21     11.0120  14.5240  15.0810   C.2       1 RES1   0.0000
    22 C22      9.2490  12.9710  15.6280   C.2       1 RES1   0.0000
@<TRIPOS>BOND
     1     1    16    1
     2     2    17    2
     3     3    18    1
     4     3    19    1
     5     4    17   am
     6     4    20    1
     7     5     6    1
     8     6    11    1
     9     7     8    1
    10     7     9    1
    11     8    12    1
    12     9    13    1
    13    10    14    1
    14    10    16    2
    15    11    21    1
    16    12    18    1
    17    13    18    1
    18    14    20    2
    19    15    16    1
    20    15    22    2
    21    17    21    1
    22    19    21    2
    23    19    22    1
    24    20    22    1
@<TRIPOS>SUBSTRUCTURE
     1 RES1        1 GROUP             0 ****  ****    0  
@<TRIPOS>MOLECULE
1TL1:A:H18999
    23    25     1     0     0
SMALL
NO_CHARGES
****
Generated from the CSD

@<TRIPOS>ATOM
     1 Cl1      6.6300  10.0690  17.6430   Cl        1 RES1   0.0000
     2 S2      11.2910  13.0460  17.7080   S.o       1 RES1   0.0000
     3 O3      11.1790  11.5800  18.0300   O.2       1 RES1   0.0000
     4 O4      10.6120  15.5580  13.1370   O.2       1 RES1   0.0000
     5 N5       8.9220  14.0280  13.8160   N.am      1 RES1   0.0000
     6 C6      14.0570  13.1530  15.6610   C.3       1 RES1   0.0000
     7 C7      13.3900  14.2840  14.8440   C.3       1 RES1   0.0000
     8 C8      11.0690  15.4200  21.7210   C.3       1 RES1   0.0000
     9 C9      10.7100  16.1580  20.4180   C.3       1 RES1   0.0000
    10 C10     10.5800  13.9280  21.7770   C.3       1 RES1   0.0000
    11 C11     11.3400  15.3790  19.2560   C.3       1 RES1   0.0000
    12 C12     10.4050  13.1780  20.3900   C.3       1 RES1   0.0000
    13 C13      6.6270  11.5180  15.3970   C.2       1 RES1   0.0000
    14 C14     12.3020  15.0550  15.5990   C.3       1 RES1   0.0000
    15 C15      7.1560  12.4600  14.4700   C.2       1 RES1   0.0000
    16 C16      8.5680  11.8080  16.9060   C.2       1 RES1   0.0000
    17 C17      7.3210  11.1930  16.5990   C.2       1 RES1   0.0000
    18 C18     10.5480  14.0580  19.0530   C.3       1 RES1   0.0000
    19 C19     10.1840  14.7120  14.0210   C.2       1 RES1   0.0000
    20 C20     10.3900  13.4220  16.2260   C.2       1 RES1   0.0000
    21 C21      8.3960  13.0910  14.7430   C.2       1 RES1   0.0000
    22 C22     10.9490  14.3740  15.3060   C.2       1 RES1   0.0000
    23 C23      9.1420  12.7740  15.9810   C.2       1 RES1   0.0000
@<TRIPOS>BOND
     1     1    17    1
     2     2     3    2
     3     2    18    1
     4     2    20    1
     5     4    19    2
     6     5    19   am
     7     5    21    1
     8     6     7    1
     9     7    14    1
    10     8     9    1
    11     8    10    1
    12     9    11    1
    13    10    12    1
    14    11    18    1
    15    12    18    1
    16    13    15    1
    17    13    17    2
    18    14    22    1
    19    15    21    2
    20    16    17    1
    21    16    23    2
    22    19    22    1
    23    20    22    2
    24    20    23    1
    25    21    23    1
@<TRIPOS>SUBSTRUCTURE
     1 RES1        1 GROUP             0 ****  ****    0  
@<TRIPOS>MOLECULE
1RT6:A:UC3999
    20    20     1     0     0
SMALL
NO_CHARGES
****
Generated from the CSD

@<TRIPOS>ATOM
     1 Cl1      7.4590  10.5350  18.1210   Cl        1 RES1   0.0000
     2 S2      10.6660  15.7910  12.0380   S.2       1 RES1   0.0000
     3 O3      11.1710  11.8600  18.2450   O.2       1 RES1   0.0000
     4 O4      11.4550  14.1030  14.0850   O.3       1 RES1   0.0000
     5 O5       9.4630  12.9650  19.3000   O.3       1 RES1   0.0000
     6 N6       9.1850  14.1800  13.6270   N.am      1 RES1   0.0000
     7 C7      13.4190  14.1710  15.5330   C.3       1 RES1   0.0000
     8 C8      13.0400  15.9260  13.6970   C.3       1 RES1   0.0000
     9 C9       9.4550  15.1620  20.2990   C.3       1 RES1   0.0000
    10 C10     10.9330  13.2940  21.1920   C.3       1 RES1   0.0000
    11 C11      7.1760  11.7290  15.6750   C.2       1 RES1   0.0000
    12 C12      7.5800  12.5600  14.6200   C.2       1 RES1   0.0000
    13 C13      9.5450  13.2200  15.8990   C.2       1 RES1   0.0000
    14 C14     10.4730  14.6640  13.2890   C.2       1 RES1   0.0000
    15 C15      7.9630  11.6370  16.8380   C.2       1 RES1   0.0000
    16 C16     10.0590  12.3590  18.2090   C.2       1 RES1   0.0000
    17 C17     12.3730  15.0100  14.7570   C.3       1 RES1   0.0000
    18 C18     10.3140  13.9360  19.9420   C.3       1 RES1   0.0000
    19 C19      8.7710  13.3160  14.7200   C.2       1 RES1   0.0000
    20 C20      9.1530  12.3930  16.9630   C.2       1 RES1   0.0000
@<TRIPOS>BOND
     1     1    15    1
     2     2    14    2
     3     3    16    2
     4     4    14    1
     5     4    17    1
     6     5    16    1
     7     5    18    1
     8     6    14   am
     9     6    19    1
    10     7    17    1
    11     8    17    1
    12     9    18    1
    13    10    18    1
    14    11    12    2
    15    11    15    1
    16    12    19    1
    17    13    19    2
    18    13    20    1
    19    15    20    2
    20    16    20    1
@<TRIPOS>SUBSTRUCTURE
     1 RES1        1 GROUP             0 ****  ****    0  
@<TRIPOS>MOLECULE
1RT7:A:UC4999
    23    24     1     0     0
SMALL
NO_CHARGES
****
Generated from the CSD

@<TRIPOS>ATOM
     1 Cl1      7.5950  10.7570  18.2610   Cl        1 RES1   0.0000
     2 S2      13.1900  15.1910  14.4050   S.3       1 RES1   0.0000
     3 O3      11.5780  12.3420  18.0500   O.2       1 RES1   0.0000
     4 O4      10.6810  15.8010  12.7250   O.2       1 RES1   0.0000
     5 O5      12.9840  12.1390  14.7700   O.3       1 RES1   0.0000
     6 O6       9.8830  12.8020  19.3980   O.3       1 RES1   0.0000
     7 N7       9.3630  14.2710  13.7710   N.am      1 RES1   0.0000
     8 C8       8.9680  14.8200  20.1880   C.3       1 RES1   0.0000
     9 C9      10.8720  13.6750  21.3450   C.3       1 RES1   0.0000
    10 C10     11.0980  11.7420  13.5400   C.3       1 RES1   0.0000
    11 C11     14.2460  14.0940  15.3630   C.3       1 RES1   0.0000
    12 C12     14.2580  12.7320  14.8200   C.3       1 RES1   0.0000
    13 C13      7.3820  11.9790  15.8780   C.2       1 RES1   0.0000
    14 C14      7.7570  12.7750  14.8400   C.2       1 RES1   0.0000
    15 C15      9.7580  13.3990  16.0320   C.2       1 RES1   0.0000
    16 C16      8.1830  11.8560  17.0160   C.2       1 RES1   0.0000
    17 C17     10.4120  12.5590  18.2290   C.2       1 RES1   0.0000
    18 C18     10.6070  14.8070  13.4280   C.2       1 RES1   0.0000
    19 C19     11.8660  14.0970  13.9700   C.2       1 RES1   0.0000
    20 C20     10.2360  14.0540  20.0550   C.3       1 RES1   0.0000
    21 C21     11.9770  12.7600  14.0890   C.2       1 RES1   0.0000
    22 C22      8.9560  13.4940  14.8930   C.2       1 RES1   0.0000
    23 C23      9.4000  12.5830  17.1000   C.2       1 RES1   0.0000
@<TRIPOS>BOND
     1     1    16    1
     2     2    11    1
     3     2    19    1
     4     3    17    2
     5     4    18    2
     6     5    12    1
     7     5    21    1
     8     6    17    1
     9     6    20    1
    10     7    18   am
    11     7    22    1
    12     8    20    1
    13     9    20    1
    14    10    21    1
    15    11    12    1
    16    13    14    2
    17    13    16    1
    18    14    22    1
    19    15    22    2
    20    15    23    1
    21    16    23    2
    22    17    23    1
    23    18    19    1
    24    19    21    2
@<TRIPOS>SUBSTRUCTURE
     1 RES1        1 GROUP             0 ****  ****    0  
@<TRIPOS>MOLECULE
3C6U:A:M22561
    28    31     1     0     0
SMALL
NO_CHARGES
****
Generated from the CSD

@<TRIPOS>ATOM
     1 Cl1     10.5720  15.9040  20.0950   Cl        1 RES1   0.0000
     2 Cl2     12.7620  11.7650  15.0020   Cl        1 RES1   0.0000
     3 O3       7.1910  13.3490  14.5660   O.3       1 RES1   0.0000
     4 O4      10.9510  11.7530  17.2210   O.3       1 RES1   0.0000
     5 N5       9.6350  10.4600  22.8750   N.1       1 RES1   0.0000
     6 N6       6.6420  10.8850  12.7720   N.2       1 RES1   0.0000
     7 N7       6.6590   9.5390  12.8130   N.2       1 RES1   0.0000
     8 C8       6.0020  12.5980  14.4300   C.3       1 RES1   0.0000
     9 C9       9.8690  11.1570  21.9680   C.1       1 RES1   0.0000
    10 C10      5.6740   7.5300  15.7880   C.2       1 RES1   0.0000
    11 C11      5.3410   8.5960  16.6240   C.2       1 RES1   0.0000
    12 C12     10.6550  12.6070  13.6800   C.2       1 RES1   0.0000
    13 C13      6.1250   7.7130  14.4650   C.2       1 RES1   0.0000
    14 C14      9.3440  12.9670  13.5510   C.2       1 RES1   0.0000
    15 C15      5.4680   9.8930  16.1330   C.2       1 RES1   0.0000
    16 C16     10.7350  13.6910  18.6620   C.2       1 RES1   0.0000
    17 C17     10.2000  13.4100  21.0320   C.2       1 RES1   0.0000
    18 C18      8.9720  12.5440  15.9070   C.2       1 RES1   0.0000
    19 C19     10.3980  11.4780  19.5450   C.2       1 RES1   0.0000
    20 C20     10.4960  14.2110  19.9270   C.2       1 RES1   0.0000
    21 C21     11.1270  12.2160  14.9120   C.2       1 RES1   0.0000
    22 C22      8.4910  12.9300  14.6390   C.2       1 RES1   0.0000
    23 C23     10.6940  12.3250  18.4550   C.2       1 RES1   0.0000
    24 C24     10.3330  12.1830  16.0430   C.2       1 RES1   0.0000
    25 C25      6.1950  11.2020  14.0020   C.2       1 RES1   0.0000
    26 C26      6.2470   9.0080  14.0110   C.2       1 RES1   0.0000
    27 C27     10.1510  12.0160  20.8410   C.2       1 RES1   0.0000
    28 C28      5.9310  10.0760  14.8130   C.2       1 RES1   0.0000
@<TRIPOS>BOND
     1     1    20    1
     2     2    21    1
     3     3     8    1
     4     3    22    1
     5     4    23    1
     6     4    24    1
     7     5     9    3
     8     6     7    1
     9     6    25    2
    10     7    26    1
    11     8    25    1
    12     9    27    1
    13    10    11    2
    14    10    13    1
    15    11    15    1
    16    12    14    2
    17    12    21    1
    18    13    26    2
    19    14    22    1
    20    15    28    2
    21    16    20    2
    22    16    23    1
    23    17    20    1
    24    17    27    2
    25    18    22    2
    26    18    24    1
    27    19    23    2
    28    19    27    1
    29    21    24    2
    30    25    28    1
    31    26    28    1
@<TRIPOS>SUBSTRUCTURE
     1 RES1        1 GROUP             0 ****  ****    0  
@<TRIPOS>MOLECULE
4Q1Y:A:017106
    38    41     1     0     0
SMALL
NO_CHARGES
****
Generated from the CSD

@<TRIPOS>ATOM
     1 S1      13.1120  11.4290  17.1550   S.o2      1 RES1   0.0000
     2 O2      12.3770  10.9790  18.2810   O.2       1 RES1   0.0000
     3 O3      14.1260  10.5560  16.6340   O.2       1 RES1   0.0000
     4 O4      16.4500  11.1030  21.0390   O.2       1 RES1   0.0000
     5 O5      13.5050  14.8870  20.6130   O.3       1 RES1   0.0000
     6 O6      16.5140  11.7190  26.2230   O.3       1 RES1   0.0000
     7 O7      18.4060  12.5470  25.1990   O.3       1 RES1   0.0000
     8 O8      16.7720  12.2900  22.9380   O.3       1 RES1   0.0000
     9 N9       9.0870  12.8130  13.2080   N.pl3     1 RES1   0.0000
    10 N10     14.8920  12.6100  21.7370   N.am      1 RES1   0.0000
    11 N11     13.9690  12.7460  17.5920   N.3       1 RES1   0.0000
    12 C12     16.7170  14.7690  15.8900   C.3       1 RES1   0.0000
    13 C13     16.9740  12.9010  17.5510   C.3       1 RES1   0.0000
    14 C14     15.4200  11.2550  25.4170   C.3       1 RES1   0.0000
    15 C15     18.9070  12.3170  23.8930   C.3       1 RES1   0.0000
    16 C16     13.2440  13.6700  18.5050   C.3       1 RES1   0.0000
    17 C17     14.7420  13.4260  16.5160   C.3       1 RES1   0.0000
    18 C18     12.5640   8.6130  23.6620   C.2       1 RES1   0.0000
    19 C19     12.7220   8.5480  22.2890   C.2       1 RES1   0.0000
    20 C20     12.4090   9.8540  24.2600   C.2       1 RES1   0.0000
    21 C21     10.7020  12.0830  16.3760   C.2       1 RES1   0.0000
    22 C22     12.3500  11.8420  14.6400   C.2       1 RES1   0.0000
    23 C23     15.9920  10.1420  24.5430   C.3       1 RES1   0.0000
    24 C24      9.7150  12.4210  15.4460   C.2       1 RES1   0.0000
    25 C25     11.3530  12.1820  13.6860   C.2       1 RES1   0.0000
    26 C26     12.7040   9.7100  21.5280   C.2       1 RES1   0.0000
    27 C27     12.3770  11.0180  23.4870   C.2       1 RES1   0.0000
    28 C28     12.5490  12.2410  21.3100   C.3       1 RES1   0.0000
    29 C29     16.0140  11.9260  21.8000   C.2       1 RES1   0.0000
    30 C30     17.7570  11.3700  25.6520   C.3       1 RES1   0.0000
    31 C31     12.0180  11.7910  15.9950   C.2       1 RES1   0.0000
    32 C32     14.0150  13.7780  19.8280   C.3       1 RES1   0.0000
    33 C33     17.8610  11.4240  23.2680   C.3       1 RES1   0.0000
    34 C34     10.0580  12.4830  14.1060   C.2       1 RES1   0.0000
    35 C35     13.9050  12.5110  20.6720   C.3       1 RES1   0.0000
    36 C36     16.0550  14.0060  17.0380   C.3       1 RES1   0.0000
    37 C37     12.5560  10.9510  22.1250   C.2       1 RES1   0.0000
    38 C38     17.4590  10.5260  24.4190   C.3       1 RES1   0.0000
@<TRIPOS>BOND
     1     1     2    2
     2     1     3    2
     3     1    11    1
     4     1    31    1
     5     4    29    2
     6     5    32    1
     7     6    14    1
     8     6    30    1
     9     7    15    1
    10     7    30    1
    11     8    29    1
    12     8    33    1
    13     9    34    1
    14    10    29   am
    15    10    35    1
    16    11    16    1
    17    11    17    1
    18    12    36    1
    19    13    36    1
    20    14    23    1
    21    15    33    1
    22    16    32    1
    23    17    36    1
    24    18    19    2
    25    18    20    1
    26    19    26    1
    27    20    27    2
    28    21    24    2
    29    21    31    1
    30    22    25    1
    31    22    31    2
    32    23    38    1
    33    24    34    1
    34    25    34    2
    35    26    37    2
    36    27    37    1
    37    28    35    1
    38    28    37    1
    39    30    38    1
    40    32    35    1
    41    33    38    1
@<TRIPOS>SUBSTRUCTURE
     1 RES1        1 GROUP             0 ****  ****    0  
@<TRIPOS>MOLECULE
2OPR:A:HBQ999
    20    21     1     0     0
SMALL
NO_CHARGES
****
Generated from the CSD

@<TRIPOS>ATOM
     1 F1       7.6490  10.8320  18.2110   F         1 RES1   0.0000
     2 O2      12.7130  14.9360  16.9530   O.2       1 RES1   0.0000
     3 O3      10.6230  15.3170  12.7770   O.2       1 RES1   0.0000
     4 O4      10.7180  14.7050  18.1030   O.3       1 RES1   0.0000
     5 N5       9.0760  14.1660  13.9650   N.am      1 RES1   0.0000
     6 N6      10.9350  13.7900  16.0220   N.am      1 RES1   0.0000
     7 C7      13.2140  12.2170  14.8270   C.3       1 RES1   0.0000
     8 C8      10.9710  13.7790  20.1990   C.3       1 RES1   0.0000
     9 C9      10.5870  16.0960  19.9820   C.3       1 RES1   0.0000
    10 C10     12.0070  12.6820  14.0840   C.3       1 RES1   0.0000
    11 C11      7.0970  11.8170  16.1240   C.2       1 RES1   0.0000
    12 C12      7.4430  12.6680  15.0420   C.2       1 RES1   0.0000
    13 C13      9.2790  12.2250  17.1870   C.2       1 RES1   0.0000
    14 C14     11.5400  14.5250  17.0670   C.2       1 RES1   0.0000
    15 C15     10.3410  14.5530  13.6910   C.2       1 RES1   0.0000
    16 C16      8.0190  11.6270  17.1550   C.2       1 RES1   0.0000
    17 C17     11.3140  15.0280  19.3690   C.3       1 RES1   0.0000
    18 C18      8.7120  13.3040  15.0330   C.2       1 RES1   0.0000
    19 C19     11.4390  13.9720  14.6320   C.3       1 RES1   0.0000
    20 C20      9.6500  13.0840  16.1210   C.2       1 RES1   0.0000
@<TRIPOS>BOND
     1     1    16    1
     2     2    14    2
     3     3    15    2
     4     4    14    1
     5     4    17    1
     6     5    15   am
     7     5    18    1
     8     6    14   am
     9     6    19    1
    10     6    20    1
    11     7    10    1
    12     8    17    1
    13     9    17    1
    14    10    19    1
    15    11    12    1
    16    11    16    2
    17    12    18    2
    18    13    16    1
    19    13    20    2
    20    15    19    1
    21    18    20    1
@<TRIPOS>SUBSTRUCTURE
     1 RES1        1 GROUP             0 ****  ****    0  
