@<TRIPOS>MOLECULE
4KG5:A:CEF404
    26    27     1     0     0
SMALL
NO_CHARGES
****
Generated from the CSD

@<TRIPOS>ATOM
     1 S1      24.9340   8.5470  14.9640   S.3       1 RES1   0.0000
     2 C2      23.3510   8.7430  15.7140   C.3       1 RES1   0.0000
     3 C3      23.6740   8.6360  17.1800   C.2       1 RES1   0.0000
     4 C4      23.3710   9.6710  17.9500   C.2       1 RES1   0.0000
     5 C5      24.4000   7.4500  17.6900   C.2       1 RES1   0.0000
     6 C6      24.2980   6.8520  19.0050   C.2       1 RES1   0.0000
     7 O7      23.2180   7.2050  19.7200   O.co2     1 RES1   0.0000
     8 O8      25.2140   6.0610  19.3770   O.co2     1 RES1   0.0000
     9 N9      25.2710   6.8420  17.0410   N.2       1 RES1   0.0000
    10 C10     25.7470   7.1210  15.6990   C.3       1 RES1   0.0000
    11 C11     25.5000   5.7730  14.9980   C.3       1 RES1   0.0000
    12 C12     25.9030   4.5890  15.8680   C.2       1 RES1   0.0000
    13 O13     25.1050   3.8490  16.5030   O.2       1 RES1   0.0000
    14 N14     24.1170   5.6400  14.6940   N.am      1 RES1   0.0000
    15 C15     23.6920   5.8080  13.4670   C.2       1 RES1   0.0000
    16 O16     24.4800   6.0880  12.5600   O.2       1 RES1   0.0000
    17 C17     22.2430   5.6210  13.2620   C.2       1 RES1   0.0000
    18 N18     21.3700   5.8420  14.1880   N.2       1 RES1   0.0000
    19 O19     21.6540   6.2850  15.3540   O.3       1 RES1   0.0000
    20 C20     20.7030   6.6850  16.3660   C.3       1 RES1   0.0000
    21 C21     21.8380   5.0640  11.9630   C.2       1 RES1   0.0000
    22 C22     22.7640   4.5590  11.0590   C.2       1 RES1   0.0000
    23 S23     21.9690   3.9660   9.6540   S.3       1 RES1   0.0000
    24 C24     20.4180   4.3550  10.3360   C.2       1 RES1   0.0000
    25 N25     19.2130   4.1240   9.7120   N.pl3     1 RES1   0.0000
    26 N26     20.5380   4.9290  11.5630   N.2       1 RES1   0.0000
@<TRIPOS>BOND
     1     1     2    1
     2     1    10    1
     3     2     3    1
     4     3     4    2
     5     3     5    1
     6     5     6    1
     7     5     9    2
     8     6     7    1
     9     6     8    2
    10     9    10    1
    11    10    11    1
    12    11    12    1
    13    11    14    1
    14    12    13    2
    15    14    15   am
    16    15    16    2
    17    15    17    1
    18    17    18    2
    19    17    21    1
    20    18    19    1
    21    19    20    1
    22    21    22    2
    23    21    26    1
    24    22    23    1
    25    23    24    1
    26    24    25    1
    27    24    26    2
@<TRIPOS>SUBSTRUCTURE
     1 RES1        1 GROUP             0 ****  ****    0  
@<TRIPOS>MOLECULE
2FFY:A:SM35401
    19    20     1     0     0
SMALL
NO_CHARGES
****
Generated from the CSD

@<TRIPOS>ATOM
     1 C1      21.0480   4.9780  10.8620   C.2       1 RES1   0.0000
     2 C2      19.8140   5.6470  11.1160   C.2       1 RES1   0.0000
     3 C3      19.6690   6.0530  12.3960   C.2       1 RES1   0.0000
     4 S4      21.0660   5.6930  13.3220   S.3       1 RES1   0.0000
     5 C5      21.8420   4.9350  11.9950   C.2       1 RES1   0.0000
     6 C6      23.2300   4.3190  12.1510   C.3       1 RES1   0.0000
     7 C7      24.1720   5.3030  12.8480   C.2       1 RES1   0.0000
     8 O8      24.5270   6.3510  12.2380   O.2       1 RES1   0.0000
     9 N9      24.6610   4.9810  14.0850   N.am      1 RES1   0.0000
    10 C10     25.6000   5.8420  14.8630   C.3       1 RES1   0.0000
    11 B11     26.0580   5.0840  16.2090   B         1 RES1   0.0000
    12 O12     24.9960   4.1870  16.7500   O.3       1 RES1   0.0000
    13 O13     26.4530   6.0480  17.2950   O.3       1 RES1   0.0000
    14 C14     24.9070   7.1810  15.0510   C.2       1 RES1   0.0000
    15 C15     23.5410   7.2200  15.3320   C.2       1 RES1   0.0000
    16 C16     25.5810   8.3640  14.8690   C.2       1 RES1   0.0000
    17 C17     24.9280   9.5820  14.9630   C.2       1 RES1   0.0000
    18 C18     23.5590   9.6070  15.1960   C.2       1 RES1   0.0000
    19 C19     22.8770   8.4210  15.4030   C.2       1 RES1   0.0000
@<TRIPOS>BOND
     1     1     2    1
     2     1     5    2
     3     2     3    2
     4     3     4    1
     5     4     5    1
     6     5     6    1
     7     6     7    1
     8     7     8    2
     9     7     9   am
    10     9    10    1
    11    10    11    1
    12    10    14    1
    13    11    12    1
    14    11    13    1
    15    14    15    2
    16    14    16    1
    17    15    19    1
    18    16    17    2
    19    17    18    1
    20    18    19    2
@<TRIPOS>SUBSTRUCTURE
     1 RES1        1 GROUP             0 ****  ****    0  
@<TRIPOS>MOLECULE
1L2S:A:STC1115
    19    20     1     0     0
SMALL
NO_CHARGES
****
Generated from the CSD

@<TRIPOS>ATOM
     1 Cl1     18.9380   5.8670  11.0820   Cl        1 RES1   0.0000
     2 S2      24.6290   7.7630  17.2160   S.3       1 RES1   0.0000
     3 S3      25.2760   5.4300  13.8970   S.o2      1 RES1   0.0000
     4 O4      26.4830   4.6860  14.1520   O.2       1 RES1   0.0000
     5 O5      25.3670   6.0870  12.6250   O.2       1 RES1   0.0000
     6 O6      24.7180   4.0210  16.6520   O.co2     1 RES1   0.0000
     7 O7      24.3710   5.1850  18.4900   O.co2     1 RES1   0.0000
     8 N8      23.9580   4.3210  13.8760   N.2       1 RES1   0.0000
     9 C9      24.8220   8.7390  16.2240   C.2       1 RES1   0.0000
    10 C10     20.5620   5.7140  13.2600   C.2       1 RES1   0.0000
    11 C11     21.4460   4.7960  11.1610   C.2       1 RES1   0.0000
    12 C12     25.0600   8.0870  15.0100   C.2       1 RES1   0.0000
    13 C13     21.7520   5.3460  13.9220   C.2       1 RES1   0.0000
    14 C14     22.6370   4.4260  11.8220   C.2       1 RES1   0.0000
    15 C15     20.4110   5.4330  11.8830   C.2       1 RES1   0.0000
    16 C16     24.6010   5.1790  17.2960   C.2       1 RES1   0.0000
    17 C17     24.7470   6.4870  16.5870   C.2       1 RES1   0.0000
    18 C18     25.0170   6.7010  15.2220   C.2       1 RES1   0.0000
    19 C19     22.7830   4.6990  13.2060   C.2       1 RES1   0.0000
@<TRIPOS>BOND
     1     1    15    1
     2     2     9    1
     3     2    17    1
     4     3     4    2
     5     3     5    2
     6     3     8    1
     7     3    18    1
     8     6    16    1
     9     7    16    2
    10     8    19    1
    11     9    12    2
    12    10    13    2
    13    10    15    1
    14    11    14    1
    15    11    15    2
    16    12    18    1
    17    13    19    1
    18    14    19    2
    19    16    17    1
    20    17    18    2
@<TRIPOS>SUBSTRUCTURE
     1 RES1        1 GROUP             0 ****  ****    0  
@<TRIPOS>MOLECULE
1PI5:A:SM2401
    22    23     1     0     0
SMALL
NO_CHARGES
****
Generated from the CSD

@<TRIPOS>ATOM
     1 C1      21.0320   5.0690  10.9800   C.2       1 RES1   0.0000
     2 C2      19.8410   5.7730  11.3000   C.2       1 RES1   0.0000
     3 C3      19.7640   6.1340  12.5940   C.2       1 RES1   0.0000
     4 S4      21.1390   5.6310  13.4670   S.3       1 RES1   0.0000
     5 C5      21.8430   4.9150  12.0740   C.2       1 RES1   0.0000
     6 C6      23.2080   4.2140  12.1540   C.3       1 RES1   0.0000
     7 C7      24.2240   5.1860  12.7700   C.2       1 RES1   0.0000
     8 O8      24.6720   6.1360  12.1060   O.2       1 RES1   0.0000
     9 N9      24.5820   4.9650  14.0820   N.am      1 RES1   0.0000
    10 C10     25.5090   5.8150  14.8450   C.3       1 RES1   0.0000
    11 B11     26.0680   5.0540  16.1680   B         1 RES1   0.0000
    12 O12     25.0290   4.1790  16.7210   O.3       1 RES1   0.0000
    13 O13     26.4700   6.0450  17.1890   O.3       1 RES1   0.0000
    14 C14     24.7850   7.1310  15.1520   C.2       1 RES1   0.0000
    15 C15     23.4250   7.1710  15.6210   C.2       1 RES1   0.0000
    16 C16     25.4450   8.3460  14.8520   C.2       1 RES1   0.0000
    17 C17     24.7430   9.5690  14.9750   C.2       1 RES1   0.0000
    18 C18     23.4000   9.6010  15.4080   C.2       1 RES1   0.0000
    19 C19     22.7330   8.4020  15.7390   C.2       1 RES1   0.0000
    20 C20     21.3000   8.4140  16.2120   C.2       1 RES1   0.0000
    21 O21     20.4180   7.9410  15.4620   O.co2     1 RES1   0.0000
    22 O22     21.0420   8.8970  17.3350   O.co2     1 RES1   0.0000
@<TRIPOS>BOND
     1     1     2    1
     2     1     5    2
     3     2     3    2
     4     3     4    1
     5     4     5    1
     6     5     6    1
     7     6     7    1
     8     7     8    2
     9     7     9   am
    10     9    10    1
    11    10    11    1
    12    10    14    1
    13    11    12    1
    14    11    13    1
    15    14    15    2
    16    14    16    1
    17    15    19    1
    18    16    17    2
    19    17    18    1
    20    18    19    2
    21    19    20    1
    22    20    21    1
    23    20    22    2
@<TRIPOS>SUBSTRUCTURE
     1 RES1        1 GROUP             0 ****  ****    0  
@<TRIPOS>MOLECULE
3IXB:A:BZB363
    12    13     1     0     0
SMALL
NO_CHARGES
****
Generated from the CSD

@<TRIPOS>ATOM
     1 B1      25.9300   4.9970  16.2000   B         1 RES1   0.0000
     2 O2      26.2090   5.7110  17.5010   O.3       1 RES1   0.0000
     3 O3      24.9640   3.8190  16.4770   O.3       1 RES1   0.0000
     4 C4      25.4640   5.8290  14.9960   C.2       1 RES1   0.0000
     5 C5      25.2340   7.2290  14.9710   C.2       1 RES1   0.0000
     6 C6      24.6680   6.3570  12.7140   C.2       1 RES1   0.0000
     7 C7      24.7420   7.5120  13.6210   C.2       1 RES1   0.0000
     8 C8      24.2530   6.4100  11.3810   C.2       1 RES1   0.0000
     9 S9      25.2060   4.9990  13.5040   S.3       1 RES1   0.0000
    10 C10     24.3590   8.7460  13.0990   C.2       1 RES1   0.0000
    11 C11     23.8830   7.6690  10.9180   C.2       1 RES1   0.0000
    12 C12     23.9390   8.7880  11.7660   C.2       1 RES1   0.0000
@<TRIPOS>BOND
     1     1     2    1
     2     1     3    1
     3     1     4    1
     4     4     5    2
     5     4     9    1
     6     5     7    1
     7     6     7    2
     8     6     8    1
     9     6     9    1
    10     7    10    1
    11     8    11    2
    12    10    12    2
    13    11    12    1
@<TRIPOS>SUBSTRUCTURE
     1 RES1        1 GROUP             0 ****  ****    0  
@<TRIPOS>MOLECULE
4KZB:A:NZ2404
    16    16     1     0     0
SMALL
NO_CHARGES
****
Generated from the CSD

@<TRIPOS>ATOM
     1 S1      19.2200   6.8320  10.4750   S.o2      1 RES1   0.0000
     2 O2      18.2370   6.0180  11.1550   O.2       1 RES1   0.0000
     3 O3      18.3720   7.6810   9.6660   O.2       1 RES1   0.0000
     4 O4      18.9640   2.8620  10.3740   O.co2     1 RES1   0.0000
     5 O5      18.8880   3.6720   8.3870   O.co2     1 RES1   0.0000
     6 N6      20.2390   5.9910   9.5230   N.pl3     1 RES1   0.0000
     7 C7      20.1740   7.8420  11.5660   C.3       1 RES1   0.0000
     8 C8      21.0620   4.5770  11.3180   C.3       1 RES1   0.0000
     9 C9      23.0450   8.3280   7.4070   C.2       1 RES1   0.0000
    10 C10     23.4540   7.5800   8.4960   C.2       1 RES1   0.0000
    11 C11     21.7160   8.3090   7.0160   C.2       1 RES1   0.0000
    12 C12     22.5190   6.8140   9.1750   C.2       1 RES1   0.0000
    13 C13     20.7730   7.5430   7.6990   C.2       1 RES1   0.0000
    14 C14     19.4000   3.6850   9.5410   C.2       1 RES1   0.0000
    15 C15     20.5160   4.6420   9.9100   C.3       1 RES1   0.0000
    16 C16     21.1810   6.7850   8.7860   C.2       1 RES1   0.0000
@<TRIPOS>BOND
     1     1     2    2
     2     1     3    2
     3     1     6    1
     4     1     7    1
     5     4    14    2
     6     5    14    1
     7     6    15    1
     8     6    16    1
     9     8    15    1
    10     9    10    2
    11     9    11    1
    12    10    12    1
    13    11    13    2
    14    12    16    2
    15    13    16    1
    16    14    15    1
@<TRIPOS>SUBSTRUCTURE
     1 RES1        1 GROUP             0 ****  ****    0  
@<TRIPOS>MOLECULE
4KZA:A:NZ9405
    15    16     1     0     0
SMALL
NO_CHARGES
****
Generated from the CSD

@<TRIPOS>ATOM
     1 S1      21.9470   3.9000  10.9420   S.3       1 RES1   0.0000
     2 S2      20.4030   6.7000   8.2870   S.o2      1 RES1   0.0000
     3 O3      20.6510   6.3050   6.9500   O.2       1 RES1   0.0000
     4 O4      19.0540   6.8640   8.7190   O.2       1 RES1   0.0000
     5 O5      19.3130   3.7670   8.2510   O.co2     1 RES1   0.0000
     6 O6      18.9930   3.1760  10.4160   O.co2     1 RES1   0.0000
     7 N7      20.9530   8.3010   8.3430   N.2       1 RES1   0.0000
     8 C8      23.0000   5.2390  10.8400   C.2       1 RES1   0.0000
     9 C9      22.5200   6.1710   9.9790   C.2       1 RES1   0.0000
    10 C10     21.2750  10.2230  10.0600   C.3       1 RES1   0.0000
    11 C11     20.5710   9.0820  10.7650   C.3       1 RES1   0.0000
    12 C12     19.5900   3.7480   9.5000   C.2       1 RES1   0.0000
    13 C13     20.8590   4.5820   9.8370   C.2       1 RES1   0.0000
    14 C14     21.2600   5.8210   9.3720   C.2       1 RES1   0.0000
    15 C15     20.3990   9.2710   9.2580   C.3       1 RES1   0.0000
@<TRIPOS>BOND
     1     1     8    1
     2     1    13    1
     3     2     3    2
     4     2     4    2
     5     2     7    1
     6     2    14    1
     7     5    12    1
     8     6    12    2
     9     7    15    1
    10     8     9    2
    11     9    14    1
    12    10    11    1
    13    10    15    1
    14    11    15    1
    15    12    13    1
    16    13    14    2
@<TRIPOS>SUBSTRUCTURE
     1 RES1        1 GROUP             0 ****  ****    0  
@<TRIPOS>MOLECULE
3BLS:A:APB362
    10    10     1     0     0
SMALL
NO_CHARGES
****
Generated from the CSD

@<TRIPOS>ATOM
     1 B1      25.8740   5.0810  16.9120   B         1 RES1   0.0000
     2 O2      24.7010   4.1500  16.3490   O.3       1 RES1   0.0000
     3 O3      25.8410   6.5750  16.1660   O.3       1 RES1   0.0000
     4 C4      25.5640   5.3520  18.5310   C.2       1 RES1   0.0000
     5 C5      24.3840   4.8510  19.0840   C.2       1 RES1   0.0000
     6 C6      24.0460   5.1040  20.4150   C.2       1 RES1   0.0000
     7 C7      24.8930   5.9330  21.1560   C.2       1 RES1   0.0000
     8 C8      26.0590   6.4650  20.5950   C.2       1 RES1   0.0000
     9 C9      26.3820   6.2040  19.2660   C.2       1 RES1   0.0000
    10 N10     22.8890   4.5850  20.9480   N.pl3     1 RES1   0.0000
@<TRIPOS>BOND
     1     1     2    1
     2     1     3    1
     3     1     4    1
     4     4     5    2
     5     4     9    1
     6     5     6    1
     7     6     7    2
     8     6    10    1
     9     7     8    1
    10     8     9    2
@<TRIPOS>SUBSTRUCTURE
     1 RES1        1 GROUP             0 ****  ****    0  
@<TRIPOS>MOLECULE
4JXV:A:1MU402
    23    24     1     0     0
SMALL
NO_CHARGES
****
Generated from the CSD

@<TRIPOS>ATOM
     1 S1      24.8570   7.7620  17.7730   S.3       1 RES1   0.0000
     2 S2      25.1520   5.8140  14.1060   S.o2      1 RES1   0.0000
     3 O3      25.0520   6.6310  12.8500   O.2       1 RES1   0.0000
     4 O4      26.4010   4.9930  14.1010   O.2       1 RES1   0.0000
     5 O5      24.7100   4.9750  18.6630   O.co2     1 RES1   0.0000
     6 O6      24.9130   4.0670  16.6470   O.co2     1 RES1   0.0000
     7 O7      20.7450   4.3200   6.3640   O.co2     1 RES1   0.0000
     8 O8      22.8770   4.7090   6.0440   O.co2     1 RES1   0.0000
     9 N9      23.8870   4.8460  14.2410   N.2       1 RES1   0.0000
    10 C10     24.9630   8.8730  16.4890   C.2       1 RES1   0.0000
    11 C11     23.4110   4.4850  12.9200   C.3       1 RES1   0.0000
    12 C12     25.0500   8.1800  15.3460   C.2       1 RES1   0.0000
    13 C13     22.2960   5.4510  12.5090   C.3       1 RES1   0.0000
    14 C14     22.6900   6.2900  10.1480   C.2       1 RES1   0.0000
    15 C15     21.6410   4.1570  10.5230   C.2       1 RES1   0.0000
    16 C16     22.5720   6.1190   8.7790   C.2       1 RES1   0.0000
    17 C17     21.5380   3.9760   9.1630   C.2       1 RES1   0.0000
    18 C18     24.8670   5.0320  17.4180   C.2       1 RES1   0.0000
    19 C19     21.8740   4.6560   6.7730   C.2       1 RES1   0.0000
    20 C20     24.9420   6.4170  16.8210   C.2       1 RES1   0.0000
    21 C21     25.0540   6.8430  15.4930   C.2       1 RES1   0.0000
    22 C22     22.2040   5.3090  11.0080   C.2       1 RES1   0.0000
    23 C23     21.9990   4.9480   8.2800   C.2       1 RES1   0.0000
@<TRIPOS>BOND
     1     1    10    1
     2     1    20    1
     3     2     3    2
     4     2     4    2
     5     2     9    1
     6     2    21    1
     7     5    18    1
     8     6    18    2
     9     7    19    1
    10     8    19    2
    11     9    11    1
    12    10    12    2
    13    11    13    1
    14    12    21    1
    15    13    22    1
    16    14    16    2
    17    14    22    1
    18    15    17    1
    19    15    22    2
    20    16    23    1
    21    17    23    2
    22    18    20    1
    23    19    23    1
    24    20    21    2
@<TRIPOS>SUBSTRUCTURE
     1 RES1        1 GROUP             0 ****  ****    0  
@<TRIPOS>MOLECULE
1KDW:A:4CB364
    12    12     1     0     0
SMALL
NO_CHARGES
****
Generated from the CSD

@<TRIPOS>ATOM
     1 B1      25.8950   4.9370  16.2010   B         1 RES1   0.0000
     2 O2      24.9480   3.8120  16.4340   O.3       1 RES1   0.0000
     3 O3      25.9200   5.8220  17.3930   O.3       1 RES1   0.0000
     4 C4      25.4310   5.7310  14.9390   C.2       1 RES1   0.0000
     5 C5      25.0690   5.0270  13.7960   C.2       1 RES1   0.0000
     6 C6      24.5590   5.6740  12.6770   C.2       1 RES1   0.0000
     7 C7      24.4060   7.0910  12.7160   C.2       1 RES1   0.0000
     8 C8      23.7280   7.8250  11.5760   C.2       1 RES1   0.0000
     9 O9      23.3180   9.0940  11.7580   O.co2     1 RES1   0.0000
    10 O10     23.5260   7.2570  10.4930   O.co2     1 RES1   0.0000
    11 C11     24.8020   7.7950  13.8920   C.2       1 RES1   0.0000
    12 C12     25.3010   7.1140  14.9700   C.2       1 RES1   0.0000
@<TRIPOS>BOND
     1     1     2    1
     2     1     3    1
     3     1     4    1
     4     4     5    2
     5     4    12    1
     6     5     6    1
     7     6     7    2
     8     7     8    1
     9     7    11    1
    10     8     9    1
    11     8    10    2
    12    11    12    2
@<TRIPOS>SUBSTRUCTURE
     1 RES1        1 GROUP             0 ****  ****    0  
@<TRIPOS>MOLECULE
4KZ5:A:1U3401
    20    21     1     0     0
SMALL
NO_CHARGES
****
Generated from the CSD

@<TRIPOS>ATOM
     1 Cl1     23.7480   8.6420  12.3740   Cl        1 RES1   0.0000
     2 O2      19.9700   6.1040  12.3170   O.co2     1 RES1   0.0000
     3 O3      18.0730   6.6350  13.2980   O.co2     1 RES1   0.0000
     4 O4      21.7910   7.6600  16.3150   O.2       1 RES1   0.0000
     5 O5      25.9800   6.9210  15.5370   O.3       1 RES1   0.0000
     6 N6      25.7370   6.4540  14.2680   N.2       1 RES1   0.0000
     7 N7      21.4090   6.1880  14.5880   N.am      1 RES1   0.0000
     8 C8      24.6580   7.6910  17.5600   C.3       1 RES1   0.0000
     9 C9      19.9690   6.2270  14.6950   C.3       1 RES1   0.0000
    10 C10     22.6650   5.2720  10.4970   C.2       1 RES1   0.0000
    11 C11     23.0270   4.2940  11.4170   C.2       1 RES1   0.0000
    12 C12     22.8860   6.6140  10.7810   C.2       1 RES1   0.0000
    13 C13     23.6070   4.6460  12.6260   C.2       1 RES1   0.0000
    14 C14     19.2920   6.3280  13.3650   C.2       1 RES1   0.0000
    15 C15     22.2740   6.9440  15.4430   C.2       1 RES1   0.0000
    16 C16     23.4650   6.9740  11.9880   C.2       1 RES1   0.0000
    17 C17     24.7990   7.1670  16.1540   C.2       1 RES1   0.0000
    18 C18     24.4100   6.4040  14.0880   C.2       1 RES1   0.0000
    19 C19     23.8230   5.9910  12.9010   C.2       1 RES1   0.0000
    20 C20     23.7780   6.8500  15.2510   C.2       1 RES1   0.0000
@<TRIPOS>BOND
     1     1    16    1
     2     2    14    1
     3     3    14    2
     4     4    15    2
     5     5     6    1
     6     5    17    1
     7     6    18    2
     8     7     9    1
     9     7    15   am
    10     8    17    1
    11     9    14    1
    12    10    11    2
    13    10    12    1
    14    11    13    1
    15    12    16    2
    16    13    19    2
    17    15    20    1
    18    16    19    1
    19    17    20    2
    20    18    19    1
    21    18    20    1
@<TRIPOS>SUBSTRUCTURE
     1 RES1        1 GROUP             0 ****  ****    0  
@<TRIPOS>MOLECULE
3GTC:A:GTC362
    15    16     1     0     0
SMALL
NO_CHARGES
****
Generated from the CSD

@<TRIPOS>ATOM
     1 S1      16.7260   1.7100   9.8480   S.3       1 RES1   0.0000
     2 O2      18.7830   6.5120   9.6870   O.co2     1 RES1   0.0000
     3 O3      18.8600   7.3400  11.7110   O.co2     1 RES1   0.0000
     4 N4      18.6540   3.1320   8.4120   N.2       1 RES1   0.0000
     5 N5      19.7630   3.9100   8.7990   N.2       1 RES1   0.0000
     6 N6      18.8160   3.1820  10.6540   N.2       1 RES1   0.0000
     7 C7      23.1650   6.3100  10.3990   C.3       1 RES1   0.0000
     8 C8      23.2440   5.0450  11.2540   C.3       1 RES1   0.0000
     9 C9      21.7420   6.6030   9.9200   C.3       1 RES1   0.0000
    10 C10     22.1950   4.0290  10.8240   C.3       1 RES1   0.0000
    11 C11     18.1490   2.7400   9.5970   C.2       1 RES1   0.0000
    12 C12     19.3750   6.6890  10.7730   C.2       1 RES1   0.0000
    13 C13     19.8240   3.9190  10.1630   C.2       1 RES1   0.0000
    14 C14     20.7590   6.1220  10.9850   C.3       1 RES1   0.0000
    15 C15     20.7940   4.5860  11.0710   C.3       1 RES1   0.0000
@<TRIPOS>BOND
     1     1    11    1
     2     2    12    2
     3     3    12    1
     4     4     5    1
     5     4    11    2
     6     5    13    1
     7     6    11    1
     8     6    13    2
     9     7     8    1
    10     7     9    1
    11     8    10    1
    12     9    14    1
    13    10    15    1
    14    12    14    1
    15    13    15    1
    16    14    15    1
@<TRIPOS>SUBSTRUCTURE
     1 RES1        1 GROUP             0 ****  ****    0  
@<TRIPOS>MOLECULE
3GSG:A:GF1366
    17    19     1     0     0
SMALL
NO_CHARGES
****
Generated from the CSD

@<TRIPOS>ATOM
     1 O1      25.6990   5.8290  18.9500   O.co2     1 RES1   0.0000
     2 O2      23.5470   5.6850  18.6980   O.co2     1 RES1   0.0000
     3 O3      21.8060   6.3570  15.9510   O.2       1 RES1   0.0000
     4 O4      25.8000   7.1900  14.5820   O.2       1 RES1   0.0000
     5 N5      24.0780   6.0760  15.6120   N.am      1 RES1   0.0000
     6 C6      24.7270   3.9710  16.5770   C.3       1 RES1   0.0000
     7 C7      22.3820   5.4780  11.3470   C.3       1 RES1   0.0000
     8 C8      23.9220   5.7560  11.1060   C.3       1 RES1   0.0000
     9 C9      22.7560   7.5360  12.2600   C.3       1 RES1   0.0000
    10 C10     24.6810   5.7100  18.2150   C.2       1 RES1   0.0000
    11 C11     22.7670   6.0760  15.2570   C.2       1 RES1   0.0000
    12 C12     24.7700   6.5200  14.5860   C.2       1 RES1   0.0000
    13 C13     24.8530   5.4690  16.7310   C.3       1 RES1   0.0000
    14 C14     21.9440   6.2930  12.6000   C.3       1 RES1   0.0000
    15 C15     24.1110   6.8470  12.1630   C.3       1 RES1   0.0000
    16 C16     22.6650   5.6320  13.7970   C.3       1 RES1   0.0000
    17 C17     24.0540   5.9750  13.3870   C.3       1 RES1   0.0000
@<TRIPOS>BOND
     1     1    10    1
     2     2    10    2
     3     3    11    2
     4     4    12    2
     5     5    11   am
     6     5    12   am
     7     5    13    1
     8     6    13    1
     9     7     8    1
    10     7    14    1
    11     8    15    1
    12     9    14    1
    13     9    15    1
    14    10    13    1
    15    11    16    1
    16    12    17    1
    17    14    16    1
    18    15    17    1
    19    16    17    1
@<TRIPOS>SUBSTRUCTURE
     1 RES1        1 GROUP             0 ****  ****    0  
@<TRIPOS>MOLECULE
1KE0:A:CVB364
    14    14     1     0     0
SMALL
NO_CHARGES
****
Generated from the CSD

@<TRIPOS>ATOM
     1 B1      25.9000   5.0100  16.2170   B         1 RES1   0.0000
     2 O2      24.8970   3.9800  16.5620   O.3       1 RES1   0.0000
     3 O3      26.0750   5.9550  17.3680   O.3       1 RES1   0.0000
     4 C4      25.4000   5.7800  14.9480   C.2       1 RES1   0.0000
     5 C5      25.0010   5.0690  13.8220   C.2       1 RES1   0.0000
     6 C6      24.5230   5.7140  12.6810   C.2       1 RES1   0.0000
     7 C7      24.4510   7.1410  12.6890   C.2       1 RES1   0.0000
     8 C8      23.9590   7.9160  11.5450   C.2       1 RES1   0.0000
     9 C9      23.5270   7.3640  10.3880   C.2       1 RES1   0.0000
    10 C10     23.0590   8.2420   9.3210   C.2       1 RES1   0.0000
    11 O11     23.7690   8.3750   8.1920   O.co2     1 RES1   0.0000
    12 O12     22.0110   8.8820   9.4640   O.co2     1 RES1   0.0000
    13 C13     24.8710   7.8310  13.8530   C.2       1 RES1   0.0000
    14 C14     25.3310   7.1530  14.9450   C.2       1 RES1   0.0000
@<TRIPOS>BOND
     1     1     2    1
     2     1     3    1
     3     1     4    1
     4     4     5    2
     5     4    14    1
     6     5     6    1
     7     6     7    2
     8     7     8    1
     9     7    13    1
    10     8     9    2
    11     9    10    1
    12    10    11    1
    13    10    12    2
    14    13    14    2
@<TRIPOS>SUBSTRUCTURE
     1 RES1        1 GROUP             0 ****  ****    0  
@<TRIPOS>MOLECULE
6YEO:A:OK3401
    25    27     1     0     0
SMALL
NO_CHARGES
****
Generated from the CSD

@<TRIPOS>ATOM
     1 N1      18.0950   6.5150  10.3800   N.3       1 RES1   0.0000
     2 C2      18.5580   5.2470  10.8740   C.3       1 RES1   0.0000
     3 C3      20.0120   5.3740  11.3790   C.2       1 RES1   0.0000
     4 C4      21.0500   4.9310  10.6020   C.2       1 RES1   0.0000
     5 C5      22.3690   5.0490  11.0590   C.2       1 RES1   0.0000
     6 C6      22.6180   5.6030  12.3040   C.2       1 RES1   0.0000
     7 C7      21.5680   6.0630  13.0810   C.2       1 RES1   0.0000
     8 C8      20.2680   5.9480  12.6300   C.2       1 RES1   0.0000
     9 C9      24.0900   5.7720  12.8340   C.2       1 RES1   0.0000
    10 O10     24.8940   6.1190  12.1100   O.2       1 RES1   0.0000
    11 N11     24.4430   5.5160  14.2490   N.am      1 RES1   0.0000
    12 C12     25.8520   5.7380  14.7030   C.3       1 RES1   0.0000
    13 C13     25.9140   7.2370  14.9040   C.3       1 RES1   0.0000
    14 C14     25.1800   7.5920  16.2350   C.2       1 RES1   0.0000
    15 C15     25.4180   6.7550  17.3000   C.2       1 RES1   0.0000
    16 O16     26.3380   5.6410  17.1300   O.3       1 RES1   0.0000
    17 B17     26.1540   4.9210  15.9940   B         1 RES1   0.0000
    18 O18     25.1400   4.0260  16.2350   O.3       1 RES1   0.0000
    19 C19     24.8050   6.9680  18.5620   C.2       1 RES1   0.0000
    20 C20     23.9250   8.0450  18.7140   C.2       1 RES1   0.0000
    21 C21     23.6680   8.9010  17.6210   C.2       1 RES1   0.0000
    22 C22     24.2830   8.6820  16.3820   C.2       1 RES1   0.0000
    23 C23     25.1130   6.0040  19.7290   C.2       1 RES1   0.0000
    24 O24     24.6080   6.1930  20.8730   O.co2     1 RES1   0.0000
    25 O25     25.8720   5.0180  19.5440   O.co2     1 RES1   0.0000
@<TRIPOS>BOND
     1     1     2    1
     2     2     3    1
     3     3     4    2
     4     3     8    1
     5     4     5    1
     6     5     6    2
     7     6     7    1
     8     6     9    1
     9     7     8    2
    10     9    10    2
    11     9    11   am
    12    11    12    1
    13    12    13    1
    14    12    17    1
    15    13    14    1
    16    14    15    2
    17    14    22    1
    18    15    16    1
    19    15    19    1
    20    16    17    1
    21    17    18    1
    22    19    20    2
    23    19    23    1
    24    20    21    1
    25    21    22    2
    26    23    24    1
    27    23    25    2
@<TRIPOS>SUBSTRUCTURE
     1 RES1        1 GROUP             0 ****  ****    0  
@<TRIPOS>MOLECULE
6YEN:A:KJK401
    24    26     1     0     0
SMALL
NO_CHARGES
****
Generated from the CSD

@<TRIPOS>ATOM
     1 B1      26.2070   4.8930  16.0210   B         1 RES1   0.0000
     2 C2      25.4610   6.7220  17.3080   C.2       1 RES1   0.0000
     3 C3      24.9520   6.8110  18.5630   C.2       1 RES1   0.0000
     4 C4      25.5860   5.8860  19.5840   C.2       1 RES1   0.0000
     5 C5      23.9530   7.7440  18.8170   C.2       1 RES1   0.0000
     6 C6      23.5020   8.5550  17.7610   C.2       1 RES1   0.0000
     7 C7      24.0330   8.4490  16.4660   C.2       1 RES1   0.0000
     8 C8      25.0270   7.5170  16.2530   C.2       1 RES1   0.0000
     9 C9      25.7520   7.2260  14.9030   C.3       1 RES1   0.0000
    10 C10     25.8330   5.7100  14.7040   C.3       1 RES1   0.0000
    11 C11     23.9360   5.8420  12.9370   C.2       1 RES1   0.0000
    12 C12     22.4690   5.4360  12.6090   C.3       1 RES1   0.0000
    13 C13     21.4340   6.5310  12.9510   C.3       1 RES1   0.0000
    14 C14     21.7770   7.2640  14.2890   C.3       1 RES1   0.0000
    15 C15     20.7550   8.3380  14.7350   C.3       1 RES1   0.0000
    16 C16     19.2950   7.8830  14.5760   C.3       1 RES1   0.0000
    17 C17     19.2450   6.3590  14.3150   C.3       1 RES1   0.0000
    18 C18     20.0180   5.9510  13.0320   C.3       1 RES1   0.0000
    19 N19     24.4720   5.3700  14.2300   N.am      1 RES1   0.0000
    20 O20     25.2000   3.9840  16.4160   O.3       1 RES1   0.0000
    21 O21     26.5030   5.7630  17.0380   O.3       1 RES1   0.0000
    22 O22     26.8370   5.6770  19.6140   O.co2     1 RES1   0.0000
    23 O23     24.8960   5.3690  20.4080   O.co2     1 RES1   0.0000
    24 O24     24.6190   6.5030  12.1950   O.2       1 RES1   0.0000
@<TRIPOS>BOND
     1     1    10    1
     2     1    20    1
     3     1    21    1
     4     2     3    2
     5     2     8    1
     6     2    21    1
     7     3     4    1
     8     3     5    1
     9     4    22    1
    10     4    23    2
    11     5     6    2
    12     6     7    1
    13     7     8    2
    14     8     9    1
    15     9    10    1
    16    10    19    1
    17    11    12    1
    18    11    19   am
    19    11    24    2
    20    12    13    1
    21    13    14    1
    22    13    18    1
    23    14    15    1
    24    15    16    1
    25    16    17    1
    26    17    18    1
@<TRIPOS>SUBSTRUCTURE
     1 RES1        1 GROUP             0 ****  ****    0  
@<TRIPOS>MOLECULE
4KEN:B:1S7403
    24    25     1     0     0
SMALL
NO_CHARGES
****
Generated from the CSD

@<TRIPOS>ATOM
     1 C1      27.1430   6.6010  13.6320   C.3       1 RES1   0.0000
     2 N2      24.7200   5.6360  14.2200   N.am      1 RES1   0.0000
     3 O3      26.6550   6.9300  14.9510   O.3       1 RES1   0.0000
     4 S4      22.6870   4.9680  10.5830   S.3       1 RES1   0.0000
     5 C5      25.5250   6.1450  15.3400   C.3       1 RES1   0.0000
     6 O6      25.7010   3.6440  14.0230   O.2       1 RES1   0.0000
     7 S7      25.2550   7.8560  17.4260   S.3       1 RES1   0.0000
     8 C8      24.8450   4.4300  13.7110   C.2       1 RES1   0.0000
     9 N9      23.7710   7.7620  15.3030   N.2       1 RES1   0.0000
    10 C10     23.9410   3.9560  12.5960   C.3       1 RES1   0.0000
    11 C11     22.8240   4.8720  12.2870   C.2       1 RES1   0.0000
    12 O12     25.1090   4.2820  16.7050   O.2       1 RES1   0.0000
    13 C13     21.8420   5.5440  12.9880   C.2       1 RES1   0.0000
    14 O14     21.0200   9.2270  14.5320   O.co2     1 RES1   0.0000
    15 C15     21.0290   6.2360  12.1120   C.2       1 RES1   0.0000
    16 O16     22.8330  10.0650  13.7270   O.co2     1 RES1   0.0000
    17 C17     21.3340   6.0470  10.7620   C.2       1 RES1   0.0000
    18 C18     24.5040   6.8890  16.1610   C.3       1 RES1   0.0000
    19 C19     23.7330   8.4640  18.1160   C.3       1 RES1   0.0000
    20 C20     22.7970   9.0590  17.0680   C.2       1 RES1   0.0000
    21 C21     21.9170  10.0210  17.4480   C.2       1 RES1   0.0000
    22 C22     22.9460   8.6730  15.6890   C.2       1 RES1   0.0000
    23 C23     25.9220   4.9770  16.1670   C.2       1 RES1   0.0000
    24 C24     22.2270   9.3700  14.5950   C.2       1 RES1   0.0000
@<TRIPOS>BOND
     1     1     3    1
     2     2     5    1
     3     2     8   am
     4     3     5    1
     5     4    11    1
     6     4    17    1
     7     5    18    1
     8     5    23    1
     9     6     8    2
    10     7    18    1
    11     7    19    1
    12     8    10    1
    13     9    18    1
    14     9    22    2
    15    10    11    1
    16    11    13    2
    17    12    23    2
    18    13    15    1
    19    14    24    2
    20    15    17    2
    21    16    24    1
    22    19    20    1
    23    20    21    2
    24    20    22    1
    25    22    24    1
@<TRIPOS>SUBSTRUCTURE
     1 RES1        1 GROUP             0 ****  ****    0  
@<TRIPOS>MOLECULE
1GA9:A:ETP964
    27    29     1     0     0
SMALL
NO_CHARGES
****
Generated from the CSD

@<TRIPOS>ATOM
     1 B1      25.9580   4.9190  16.0930   B         1 RES1   0.0000
     2 O2      24.8850   3.9060  16.4120   O.3       1 RES1   0.0000
     3 O3      26.2160   5.7570  17.2730   O.3       1 RES1   0.0000
     4 C4      25.4860   5.8510  14.8830   C.2       1 RES1   0.0000
     5 C5      25.1380   5.3010  13.6210   C.2       1 RES1   0.0000
     6 C6      24.6030   6.1400  12.5960   C.2       1 RES1   0.0000
     7 N7      24.1690   5.5780  11.2850   N.2       1 RES1   0.0000
     8 C8      24.4290   7.5200  12.8410   C.2       1 RES1   0.0000
     9 C9      24.7750   8.0760  14.0710   C.2       1 RES1   0.0000
    10 C10     25.3050   7.2470  15.0940   C.2       1 RES1   0.0000
    11 S11     22.7730   4.6250  11.1130   S.o2      1 RES1   0.0000
    12 O12     22.8810   3.5010  12.0640   O.2       1 RES1   0.0000
    13 O13     22.3140   4.4800   9.7850   O.2       1 RES1   0.0000
    14 S14     20.4230   6.6170  10.8140   S.3       1 RES1   0.0000
    15 C15     19.6440   7.1790  12.3090   C.2       1 RES1   0.0000
    16 C16     20.1840   6.6440  13.4260   C.2       1 RES1   0.0000
    17 C17     21.2770   5.7120  13.1530   C.2       1 RES1   0.0000
    18 C18     21.5070   5.6130  11.8260   C.2       1 RES1   0.0000
    19 S19     19.6940   7.0670  15.0440   S.o2      1 RES1   0.0000
    20 O20     18.3380   7.4110  15.1290   O.2       1 RES1   0.0000
    21 O21     20.3790   6.1710  15.9950   O.2       1 RES1   0.0000
    22 C22     20.4950   8.6090  15.3240   C.2       1 RES1   0.0000
    23 C23     21.5680   8.7010  16.2510   C.2       1 RES1   0.0000
    24 C24     22.2480   9.9250  16.4320   C.2       1 RES1   0.0000
    25 C25     21.8620  11.0720  15.6870   C.2       1 RES1   0.0000
    26 C26     20.7970  10.9960  14.7670   C.2       1 RES1   0.0000
    27 C27     20.1110   9.7730  14.5830   C.2       1 RES1   0.0000
@<TRIPOS>BOND
     1     1     2    1
     2     1     3    1
     3     1     4    1
     4     4     5    2
     5     4    10    1
     6     5     6    1
     7     6     7    1
     8     6     8    2
     9     7    11    1
    10     8     9    1
    11     9    10    2
    12    11    12    2
    13    11    13    2
    14    11    18    1
    15    14    15    1
    16    14    18    1
    17    15    16    2
    18    16    17    1
    19    16    19    1
    20    17    18    2
    21    19    20    2
    22    19    21    2
    23    19    22    1
    24    22    23    2
    25    22    27    1
    26    23    24    1
    27    24    25    2
    28    25    26    1
    29    26    27    2
@<TRIPOS>SUBSTRUCTURE
     1 RES1        1 GROUP             0 ****  ****    0  
@<TRIPOS>MOLECULE
1FSW:A:CTB964
    13    13     1     0     0
SMALL
NO_CHARGES
****
Generated from the CSD

@<TRIPOS>ATOM
     1 B1      26.2400   4.9870  16.2500   B         1 RES1   0.0000
     2 O2      25.0530   4.0490  16.3970   O.3       1 RES1   0.0000
     3 O3      26.4020   5.8090  17.4750   O.3       1 RES1   0.0000
     4 C4      26.0460   5.9140  15.0180   C.3       1 RES1   0.0000
     5 N5      24.8420   6.7710  15.1580   N.am      1 RES1   0.0000
     6 C6      24.2040   7.2190  14.0480   C.2       1 RES1   0.0000
     7 O7      24.6030   6.9040  12.9080   O.2       1 RES1   0.0000
     8 C8      22.9630   8.1050  14.1920   C.3       1 RES1   0.0000
     9 C9      21.8080   7.3540  14.4120   C.2       1 RES1   0.0000
    10 C10     21.4790   6.9940  15.6900   C.2       1 RES1   0.0000
    11 C11     20.3240   6.2440  15.6730   C.2       1 RES1   0.0000
    12 C12     19.8380   6.0700  14.3790   C.2       1 RES1   0.0000
    13 S13     20.7870   6.8290  13.1360   S.3       1 RES1   0.0000
@<TRIPOS>BOND
     1     1     2    1
     2     1     3    1
     3     1     4    1
     4     4     5    1
     5     5     6   am
     6     6     7    2
     7     6     8    1
     8     8     9    1
     9     9    10    2
    10     9    13    1
    11    10    11    1
    12    11    12    2
    13    12    13    1
@<TRIPOS>SUBSTRUCTURE
     1 RES1        1 GROUP             0 ****  ****    0  
@<TRIPOS>MOLECULE
1XGJ:A:HTC777
    22    23     1     0     0
SMALL
NO_CHARGES
****
Generated from the CSD

@<TRIPOS>ATOM
     1 S1      24.7220   7.7760  17.2560   S.3       1 RES1   0.0000
     2 S2      25.1890   5.5260  13.8170   S.o2      1 RES1   0.0000
     3 O3      25.2490   6.2460  12.5880   O.2       1 RES1   0.0000
     4 O4      26.4000   4.7460  14.0160   O.2       1 RES1   0.0000
     5 O5      24.8330   5.1870  18.5450   O.co2     1 RES1   0.0000
     6 O6      25.0480   4.0550  16.6390   O.co2     1 RES1   0.0000
     7 O7      17.7930   7.0490  13.1610   O.co2     1 RES1   0.0000
     8 O8      18.1180   6.2430  11.1060   O.co2     1 RES1   0.0000
     9 O9      22.7890   4.0830  11.0330   O.3       1 RES1   0.0000
    10 N10     23.8290   4.4230  13.6850   N.2       1 RES1   0.0000
    11 C11     24.7290   8.7700  16.2470   C.2       1 RES1   0.0000
    12 C12     24.8840   8.1440  15.0040   C.2       1 RES1   0.0000
    13 C13     21.7300   5.6100  14.3130   C.2       1 RES1   0.0000
    14 C14     20.4290   6.0990  13.9620   C.2       1 RES1   0.0000
    15 C15     20.7340   5.2210  11.6230   C.2       1 RES1   0.0000
    16 C16     24.9200   5.1970  17.3090   C.2       1 RES1   0.0000
    17 C17     18.5490   6.4150  12.2500   C.2       1 RES1   0.0000
    18 C18     24.8780   6.5090  16.5980   C.2       1 RES1   0.0000
    19 C19     24.9760   6.7560  15.2000   C.2       1 RES1   0.0000
    20 C20     22.0330   4.7330  11.9750   C.2       1 RES1   0.0000
    21 C21     22.5400   4.9210  13.3210   C.2       1 RES1   0.0000
    22 C22     19.9270   5.9040  12.6200   C.2       1 RES1   0.0000
@<TRIPOS>BOND
     1     1    11    1
     2     1    18    1
     3     2     3    2
     4     2     4    2
     5     2    10    1
     6     2    19    1
     7     5    16    2
     8     6    16    1
     9     7    17    1
    10     8    17    2
    11     9    20    1
    12    10    21    1
    13    11    12    2
    14    12    19    1
    15    13    14    2
    16    13    21    1
    17    14    22    1
    18    15    20    1
    19    15    22    2
    20    16    18    1
    21    17    22    1
    22    18    19    2
    23    20    21    2
@<TRIPOS>SUBSTRUCTURE
     1 RES1        1 GROUP             0 ****  ****    0  
@<TRIPOS>MOLECULE
1KE3:A:BDB364
    18    19     1     0     0
SMALL
NO_CHARGES
****
Generated from the CSD

@<TRIPOS>ATOM
     1 B1      26.0120   4.9180  16.2010   B         1 RES1   0.0000
     2 O2      24.9830   3.8780  16.5080   O.3       1 RES1   0.0000
     3 O3      26.1570   5.8220  17.3480   O.3       1 RES1   0.0000
     4 C4      25.5520   5.6930  14.9540   C.2       1 RES1   0.0000
     5 C5      25.2400   4.9650  13.8330   C.2       1 RES1   0.0000
     6 C6      24.7210   5.5590  12.7380   C.2       1 RES1   0.0000
     7 C7      24.4840   6.9590  12.7290   C.2       1 RES1   0.0000
     8 C8      24.8430   7.7130  13.8930   C.2       1 RES1   0.0000
     9 C9      25.3660   7.0670  14.9800   C.2       1 RES1   0.0000
    10 C10     23.8060   7.5750  11.5530   C.2       1 RES1   0.0000
    11 C11     24.1020   7.1610  10.2690   C.2       1 RES1   0.0000
    12 C12     23.4250   7.6600   9.1990   C.2       1 RES1   0.0000
    13 C13     22.3970   8.6200   9.3960   C.2       1 RES1   0.0000
    14 C14     22.1160   9.0530  10.7110   C.2       1 RES1   0.0000
    15 C15     22.8170   8.5290  11.7540   C.2       1 RES1   0.0000
    16 B16     21.6180   9.1430   8.2500   B         1 RES1   0.0000
    17 O17     22.0900  10.1850   7.3460   O.3       1 RES1   0.0000
    18 O18     20.2720   8.6750   7.8890   O.3       1 RES1   0.0000
@<TRIPOS>BOND
     1     1     2    1
     2     1     3    1
     3     1     4    1
     4     4     5    2
     5     4     9    1
     6     5     6    1
     7     6     7    2
     8     7     8    1
     9     7    10    1
    10     8     9    2
    11    10    11    2
    12    10    15    1
    13    11    12    1
    14    12    13    2
    15    13    14    1
    16    13    16    1
    17    14    15    2
    18    16    17    1
    19    16    18    1
@<TRIPOS>SUBSTRUCTURE
     1 RES1        1 GROUP             0 ****  ****    0  
@<TRIPOS>MOLECULE
1KVL:A:CLS371
    26    28     1     0     0
SMALL
NO_CHARGES
****
Generated from the CSD

@<TRIPOS>ATOM
     1 S1      21.0050   4.6740  10.6040   S.3       1 RES1   0.0000
     2 S2      24.3460   8.1940  15.3910   S.3       1 RES1   0.0000
     3 O3      26.6980   5.7750  19.7210   O.co2     1 RES1   0.0000
     4 O4      24.5380   5.4510  19.7270   O.co2     1 RES1   0.0000
     5 O5      26.6370  10.7680  20.4180   O.2       1 RES1   0.0000
     6 O6      24.8000   6.3190  12.2890   O.2       1 RES1   0.0000
     7 O7      25.1790   3.9620  16.6700   O.2       1 RES1   0.0000
     8 O8      24.7920  10.4000  19.1990   O.3       1 RES1   0.0000
     9 N9      24.1420   5.5280  14.2820   N.am      1 RES1   0.0000
    10 N10     25.7350   6.2400  16.8350   N.am      1 RES1   0.0000
    11 C11     26.5940  11.5820  18.1080   C.3       1 RES1   0.0000
    12 C12     21.2650   5.2070   8.9940   C.2       1 RES1   0.0000
    13 C13     24.8520   9.1500  16.8350   C.3       1 RES1   0.0000
    14 C14     24.6250   8.9520  19.3850   C.3       1 RES1   0.0000
    15 C15     22.2170   6.0580   8.8740   C.2       1 RES1   0.0000
    16 C16     22.9270   6.4140  10.0990   C.2       1 RES1   0.0000
    17 C17     22.4960   5.7910  12.6820   C.3       1 RES1   0.0000
    18 C18     25.5500   5.9960  19.2620   C.2       1 RES1   0.0000
    19 C19     26.1000  10.9050  19.3790   C.2       1 RES1   0.0000
    20 C20     23.8890   5.8870  13.0230   C.2       1 RES1   0.0000
    21 C21     25.7270   7.0260  15.5020   C.3       1 RES1   0.0000
    22 C22     22.2370   5.6880  11.1500   C.2       1 RES1   0.0000
    23 C23     25.4120   5.0630  16.2430   C.2       1 RES1   0.0000
    24 C24     25.3810   5.6240  14.8200   C.3       1 RES1   0.0000
    25 C25     25.3750   6.9220  18.0370   C.2       1 RES1   0.0000
    26 C26     24.9800   8.2180  18.0790   C.2       1 RES1   0.0000
@<TRIPOS>BOND
     1     1    12    1
     2     1    22    1
     3     2    13    1
     4     2    21    1
     5     3    18    1
     6     4    18    2
     7     5    19    2
     8     6    20    2
     9     7    23    2
    10     8    14    1
    11     8    19    1
    12     9    20   am
    13     9    24    1
    14    10    21    1
    15    10    23   am
    16    10    25    1
    17    11    19    1
    18    12    15    2
    19    13    26    1
    20    14    26    1
    21    15    16    1
    22    16    22    2
    23    17    20    1
    24    17    22    1
    25    18    25    1
    26    21    24    1
    27    23    24    1
    28    25    26    2
@<TRIPOS>SUBSTRUCTURE
     1 RES1        1 GROUP             0 ****  ****    0  
@<TRIPOS>MOLECULE
1KDS:A:NPB364
    12    12     1     0     0
SMALL
USER_CHARGES
****
Generated from the CSD

@<TRIPOS>ATOM
     1 B1      26.0270   4.9240  16.3830   B         1 RES1   0.0000
     2 O2      24.9250   3.9230  16.5260   O.3       1 RES1   0.0000
     3 O3      26.1420   5.9330  17.3800   O.3       1 RES1   0.0000
     4 C4      25.5830   5.7300  15.1060   C.2       1 RES1   0.0000
     5 C5      24.9360   5.0830  14.0940   C.2       1 RES1   0.0000
     6 C6      24.4900   5.7340  12.9850   C.2       1 RES1   0.0000
     7 N7      23.7320   4.9900  11.9110   N.pl3     1 RES1   1.0000
     8 O8      23.1930   5.5740  11.0420   O.3       1 RES1  -1.0000
     9 O9      23.5610   3.8100  11.9910   O.2       1 RES1   0.0000
    10 C10     24.7100   7.1220  12.8720   C.2       1 RES1   0.0000
    11 C11     25.3720   7.7910  13.8920   C.2       1 RES1   0.0000
    12 C12     25.8050   7.0690  15.0120   C.2       1 RES1   0.0000
@<TRIPOS>BOND
     1     1     2    1
     2     1     3    1
     3     1     4    1
     4     4     5    2
     5     4    12    1
     6     5     6    1
     7     6     7    1
     8     6    10    2
     9     7     8    1
    10     7     9    2
    11    10    11    1
    12    11    12    2
@<TRIPOS>SUBSTRUCTURE
     1 RES1        1 GROUP             0 ****  ****    0  
@<TRIPOS>MOLECULE
4KZ3:A:1U1401
    13    13     1     0     0
SMALL
NO_CHARGES
****
Generated from the CSD

@<TRIPOS>ATOM
     1 Cl1     24.4720   5.3210  12.5100   Cl        1 RES1   0.0000
     2 S2      22.0730   4.0270  11.4170   S.3       1 RES1   0.0000
     3 S3      21.9740   6.0200   7.6980   S.o2      1 RES1   0.0000
     4 O4      22.9990   6.9810   7.4390   O.2       1 RES1   0.0000
     5 O5      20.6290   6.4530   7.5600   O.2       1 RES1   0.0000
     6 O6      19.5970   3.0210  10.2510   O.co2     1 RES1   0.0000
     7 O7      19.9380   3.6310   8.1270   O.co2     1 RES1   0.0000
     8 N8      22.2830   4.8360   6.5680   N.3       1 RES1   0.0000
     9 C9      23.3200   5.7580  10.0440   C.2       1 RES1   0.0000
    10 C10     23.3710   5.1480  11.2440   C.2       1 RES1   0.0000
    11 C11     20.2260   3.5630   9.3210   C.2       1 RES1   0.0000
    12 C12     21.4730   4.3910   9.8570   C.2       1 RES1   0.0000
    13 C13     22.2330   5.3500   9.1970   C.2       1 RES1   0.0000
@<TRIPOS>BOND
     1     1    10    1
     2     2    10    1
     3     2    12    1
     4     3     4    2
     5     3     5    2
     6     3     8    1
     7     3    13    1
     8     6    11    1
     9     7    11    2
    10     9    10    2
    11     9    13    1
    12    11    12    1
    13    12    13    2
@<TRIPOS>SUBSTRUCTURE
     1 RES1        1 GROUP             0 ****  ****    0  
@<TRIPOS>MOLECULE
4KZ7:A:1U5401
    14    15     1     0     0
SMALL
NO_CHARGES
****
Generated from the CSD

@<TRIPOS>ATOM
     1 O1      23.2580   5.7810  18.1120   O.co2     1 RES1   0.0000
     2 O2      24.8430   4.5450  17.1660   O.co2     1 RES1   0.0000
     3 O3      25.0420   5.9960  12.6650   O.2       1 RES1   0.0000
     4 O4      24.3870   5.4520  14.7290   O.3       1 RES1   0.0000
     5 C5      25.8190   7.5760  15.8940   C.3       1 RES1   0.0000
     6 C6      23.6070   8.6560  16.5330   C.3       1 RES1   0.0000
     7 C7      24.3970   8.8540  13.3620   C.3       1 RES1   0.0000
     8 C8      22.2620   6.3130  15.3190   C.3       1 RES1   0.0000
     9 C9      22.4020   7.3750  14.1550   C.3       1 RES1   0.0000
    10 C10     23.9630   5.4300  17.1500   C.2       1 RES1   0.0000
    11 C11     24.5370   6.3450  13.7000   C.2       1 RES1   0.0000
    12 C12     23.7110   6.1390  15.8020   C.3       1 RES1   0.0000
    13 C13     24.3020   7.5880  15.6790   C.3       1 RES1   0.0000
    14 C14     23.9070   7.6610  14.1180   C.3       1 RES1   0.0000
@<TRIPOS>BOND
     1     1    10    2
     2     2    10    1
     3     3    11    2
     4     4    11    1
     5     4    12    1
     6     5    13    1
     7     6    13    1
     8     7    14    1
     9     8     9    1
    10     8    12    1
    11     9    14    1
    12    10    12    1
    13    11    14    1
    14    12    13    1
    15    13    14    1
@<TRIPOS>SUBSTRUCTURE
     1 RES1        1 GROUP             0 ****  ****    0  
@<TRIPOS>MOLECULE
4KZ8:A:1U6401
    13    13     1     0     0
SMALL
NO_CHARGES
****
Generated from the CSD

@<TRIPOS>ATOM
     1 S1      25.1450   6.0140  14.0670   S.2       1 RES1   0.0000
     2 O2      21.0510   7.5970  16.4740   O.3       1 RES1   0.0000
     3 O3      20.5510   5.3460  12.4700   O.2       1 RES1   0.0000
     4 N4      22.9380   6.8040  15.2560   N.am      1 RES1   0.0000
     5 N5      22.6470   5.6560  13.2070   N.am      1 RES1   0.0000
     6 C6      24.2690   8.7510  16.1320   C.3       1 RES1   0.0000
     7 C7      23.3860   5.7890  10.8100   C.3       1 RES1   0.0000
     8 C8      23.7710   7.3550  16.3010   C.2       1 RES1   0.0000
     9 C9      23.1350   4.9640  12.0320   C.2       1 RES1   0.0000
    10 C10     20.7660   6.4380  14.4120   C.2       1 RES1   0.0000
    11 C11     23.4780   6.1630  14.1730   C.2       1 RES1   0.0000
    12 C12     21.6000   6.9500  15.3850   C.2       1 RES1   0.0000
    13 C13     21.3100   5.7930  13.3250   C.2       1 RES1   0.0000
@<TRIPOS>BOND
     1     1    11    2
     2     2    12    1
     3     3    13    2
     4     4     8    1
     5     4    11   am
     6     4    12    1
     7     5     9    1
     8     5    11   am
     9     5    13   am
    10     6     8    1
    11     7     9    1
    12    10    12    2
    13    10    13    1
@<TRIPOS>SUBSTRUCTURE
     1 RES1        1 GROUP             0 ****  ****    0  
@<TRIPOS>MOLECULE
1FSY:A:105964
    20    21     1     0     0
SMALL
NO_CHARGES
****
Generated from the CSD

@<TRIPOS>ATOM
     1 B1      26.2110   4.8840  16.0980   B         1 RES1   0.0000
     2 O2      25.0500   3.9190  16.3080   O.3       1 RES1   0.0000
     3 O3      26.3690   5.7600  17.2800   O.3       1 RES1   0.0000
     4 C4      25.9930   5.7390  14.8080   C.3       1 RES1   0.0000
     5 N5      24.5920   5.6440  14.3520   N.am      1 RES1   0.0000
     6 C6      24.2330   5.8910  13.0700   C.2       1 RES1   0.0000
     7 O7      25.0260   6.2300  12.1880   O.2       1 RES1   0.0000
     8 C8      22.8320   5.7940  12.7690   C.2       1 RES1   0.0000
     9 N9      20.6020   6.2140  13.0970   N.2       1 RES1   0.0000
    10 O10     20.7890   5.4640  11.8720   O.3       1 RES1   0.0000
    11 C11     22.0960   5.2980  11.8060   C.2       1 RES1   0.0000
    12 C12     21.8120   6.3950  13.5920   C.2       1 RES1   0.0000
    13 C13     22.7280   4.5460  10.6640   C.3       1 RES1   0.0000
    14 C14     21.8480   7.1730  14.9160   C.2       1 RES1   0.0000
    15 C15     22.6100   8.4100  15.0080   C.2       1 RES1   0.0000
    16 Cl16    23.3600   9.1500  13.5620   Cl        1 RES1   0.0000
    17 C17     22.7990   9.0470  16.2600   C.2       1 RES1   0.0000
    18 C18     22.2290   8.4760  17.4280   C.2       1 RES1   0.0000
    19 C19     21.4620   7.2750  17.3410   C.2       1 RES1   0.0000
    20 C20     21.2700   6.6240  16.0870   C.2       1 RES1   0.0000
@<TRIPOS>BOND
     1     1     2    1
     2     1     3    1
     3     1     4    1
     4     4     5    1
     5     5     6   am
     6     6     7    2
     7     6     8    1
     8     8    11    2
     9     8    12    1
    10     9    10    1
    11     9    12    2
    12    10    11    1
    13    11    13    1
    14    12    14    1
    15    14    15    2
    16    14    20    1
    17    15    16    1
    18    15    17    1
    19    17    18    2
    20    18    19    1
    21    19    20    2
@<TRIPOS>SUBSTRUCTURE
     1 RES1        1 GROUP             0 ****  ****    0  
@<TRIPOS>MOLECULE
1FCN:A:LOR961
    24    25     1     0     0
SMALL
NO_CHARGES
****
Generated from the CSD

@<TRIPOS>ATOM
     1 Cl1     21.4440  10.3070  16.1340   Cl        1 RES1   0.0000
     2 C2      25.9850   5.0960  15.9490   C.2       1 RES1   0.0000
     3 O3      25.1860   4.3710  16.5440   O.2       1 RES1   0.0000
     4 C4      25.5150   6.4720  15.3690   C.3       1 RES1   0.0000
     5 N5      24.2170   6.3100  14.5660   N.am      1 RES1   0.0000
     6 C6      25.3540   7.5140  16.5280   C.3       1 RES1   0.0000
     7 C7      25.4830   8.9090  15.9560   C.3       1 RES1   0.0000
     8 C8      24.1950   9.4040  15.2970   C.3       1 RES1   0.0000
     9 C9      22.8050   9.2550  16.3280   C.2       1 RES1   0.0000
    10 C10     22.8730   8.1000  17.4230   C.2       1 RES1   0.0000
    11 C11     21.7860   7.7740  18.4240   C.2       1 RES1   0.0000
    12 N12     24.1420   7.2910  17.4120   N.2       1 RES1   0.0000
    13 C13     24.2150   5.6680  13.3740   C.2       1 RES1   0.0000
    14 O14     25.2570   5.1490  12.9270   O.2       1 RES1   0.0000
    15 C15     22.9090   5.5280  12.5640   C.3       1 RES1   0.0000
    16 N16     22.8280   4.2480  12.0580   N.3       1 RES1   0.0000
    17 C17     22.8280   6.4700  11.4170   C.2       1 RES1   0.0000
    18 C18     23.8050   6.4040  10.3480   C.2       1 RES1   0.0000
    19 C19     23.7170   7.3010   9.2510   C.2       1 RES1   0.0000
    20 C20     22.6500   8.2850   9.1880   C.2       1 RES1   0.0000
    21 C21     21.6670   8.3450  10.2630   C.2       1 RES1   0.0000
    22 C22     21.7580   7.4310  11.3820   C.2       1 RES1   0.0000
    23 O23     22.1380   7.8520  19.6560   O.co2     1 RES1   0.0000
    24 O24     20.3490   7.3290  17.9590   O.co2     1 RES1   0.0000
@<TRIPOS>BOND
     1     1     9    1
     2     2     3    2
     3     2     4    1
     4     4     5    1
     5     4     6    1
     6     5    13   am
     7     6     7    1
     8     6    12    1
     9     7     8    1
    10     8     9    1
    11     9    10    2
    12    10    11    1
    13    10    12    1
    14    11    23    2
    15    11    24    1
    16    13    14    2
    17    13    15    1
    18    15    16    1
    19    15    17    1
    20    17    18    2
    21    17    22    1
    22    18    19    1
    23    19    20    2
    24    20    21    1
    25    21    22    2
@<TRIPOS>SUBSTRUCTURE
     1 RES1        1 GROUP             0 ****  ****    0  
@<TRIPOS>MOLECULE
1FCO:A:MOX961
    29    30     1     0     0
SMALL
NO_CHARGES
****
Generated from the CSD

@<TRIPOS>ATOM
     1 C1      25.8550   4.9010  16.4510   C.2       1 RES1   0.0000
     2 O2      25.0890   4.0610  16.8570   O.2       1 RES1   0.0000
     3 C3      25.3340   6.2510  16.0260   C.3       1 RES1   0.0000
     4 N4      24.1940   6.1030  15.0420   N.am      1 RES1   0.0000
     5 C5      24.7960   7.0900  17.3790   C.3       1 RES1   0.0000
     6 O6      26.0090   7.5260  18.0720   O.3       1 RES1   0.0000
     7 C7      25.8490   8.6330  19.0110   C.3       1 RES1   0.0000
     8 C8      25.1830   9.7910  18.3300   C.2       1 RES1   0.0000
     9 C9      24.1260   9.4910  17.2710   C.2       1 RES1   0.0000
    10 C10     23.2660  10.5720  16.6270   C.2       1 RES1   0.0000
    11 N11     23.9650   8.2400  16.8730   N.2       1 RES1   0.0000
    12 C12     25.4480  11.0650  18.7800   C.2       1 RES1   0.0000
    13 C13     24.2300   5.2190  13.9810   C.2       1 RES1   0.0000
    14 O14     25.2340   4.5130  13.8050   O.2       1 RES1   0.0000
    15 C15     23.0190   5.1190  12.9660   C.3       1 RES1   0.0000
    16 C16     23.2840   5.9130  11.7310   C.2       1 RES1   0.0000
    17 C17     22.8970   5.3960  10.4530   C.2       1 RES1   0.0000
    18 C18     23.1390   6.1750   9.2660   C.2       1 RES1   0.0000
    19 C19     23.7710   7.4790   9.3610   C.2       1 RES1   0.0000
    20 O20     24.0110   8.2490   8.1830   O.3       1 RES1   0.0000
    21 C21     24.1580   7.9890  10.6270   C.2       1 RES1   0.0000
    22 C22     23.9180   7.2130  11.8220   C.2       1 RES1   0.0000
    23 C23     21.7330   5.6450  13.5780   C.2       1 RES1   0.0000
    24 O24     20.6650   5.0190  13.4100   O.co2     1 RES1   0.0000
    25 O25     21.7230   6.7310  14.2120   O.co2     1 RES1   0.0000
    26 O26     26.4430   6.9840  15.4270   O.3       1 RES1   0.0000
    27 C27     26.0750   8.1770  14.6570   C.3       1 RES1   0.0000
    28 O28     22.3220  10.2460  15.7610   O.co2     1 RES1   0.0000
    29 O29     23.4940  11.8030  16.9120   O.co2     1 RES1   0.0000
@<TRIPOS>BOND
     1     1     2    2
     2     1     3    1
     3     3     4    1
     4     3     5    1
     5     3    26    1
     6     4    13   am
     7     5     6    1
     8     5    11    1
     9     6     7    1
    10     7     8    1
    11     8     9    2
    12     8    12    1
    13     9    10    1
    14     9    11    1
    15    10    28    1
    16    10    29    2
    17    13    14    2
    18    13    15    1
    19    15    16    1
    20    15    23    1
    21    16    17    2
    22    16    22    1
    23    17    18    1
    24    18    19    2
    25    19    20    1
    26    19    21    1
    27    21    22    2
    28    23    24    2
    29    23    25    1
    30    26    27    1
@<TRIPOS>SUBSTRUCTURE
     1 RES1        1 GROUP             0 ****  ****    0  
@<TRIPOS>MOLECULE
5JOC:A:CIT400
    13    12     1     0     0
SMALL
NO_CHARGES
****
Generated from the CSD

@<TRIPOS>ATOM
     1 O1      22.9980   5.7210  10.8110   O.co2     1 RES1   0.0000
     2 O2      22.7240   4.1640  12.3240   O.co2     1 RES1   0.0000
     3 O3      23.8500   3.1800  14.3070   O.co2     1 RES1   0.0000
     4 O4      24.5960   3.7650  16.3620   O.co2     1 RES1   0.0000
     5 O5      26.7350   5.0850  14.5220   O.co2     1 RES1   0.0000
     6 O6      26.3180   7.2390  15.0370   O.co2     1 RES1   0.0000
     7 O7      24.1820   7.4410  13.6290   O.3       1 RES1   0.0000
     8 C8      24.7470   5.4030  12.4930   C.3       1 RES1   0.0000
     9 C9      23.7190   5.4800  14.9480   C.3       1 RES1   0.0000
    10 C10     23.4150   5.0660  11.7940   C.2       1 RES1   0.0000
    11 C11     24.0710   4.0360  15.2370   C.2       1 RES1   0.0000
    12 C12     26.0160   6.1150  14.5330   C.2       1 RES1   0.0000
    13 C13     24.6460   6.0730  13.8620   C.3       1 RES1   0.0000
@<TRIPOS>BOND
     1     1    10    2
     2     2    10    1
     3     3    11    1
     4     4    11    2
     5     5    12    2
     6     6    12    1
     7     7    13    1
     8     8    10    1
     9     8    13    1
    10     9    11    1
    11     9    13    1
    12    12    13    1
@<TRIPOS>SUBSTRUCTURE
     1 RES1        1 GROUP             0 ****  ****    0  
@<TRIPOS>MOLECULE
2HDU:A:F121009
    12    12     1     0     0
SMALL
NO_CHARGES
****
Generated from the CSD

@<TRIPOS>ATOM
     1 S1      19.4130   6.3960  12.7520   S.3       1 RES1   0.0000
     2 O2      21.5630   5.2500  11.4480   O.2       1 RES1   0.0000
     3 O3      22.1850   6.3940  16.5310   O.co2     1 RES1   0.0000
     4 O4      20.4060   7.2950  17.5330   O.co2     1 RES1   0.0000
     5 N5      21.8720   5.7290  13.6440   N.am      1 RES1   0.0000
     6 C6      23.6590   4.7330  12.4080   C.3       1 RES1   0.0000
     7 C7      18.3140   7.0830  13.8860   C.2       1 RES1   0.0000
     8 C8      18.8950   7.2100  15.1450   C.2       1 RES1   0.0000
     9 C9      22.2610   5.2670  12.4470   C.2       1 RES1   0.0000
    10 C10     20.9980   6.8140  16.5260   C.2       1 RES1   0.0000
    11 C11     20.6540   6.2450  13.9220   C.2       1 RES1   0.0000
    12 C12     20.2150   6.7540  15.2490   C.2       1 RES1   0.0000
@<TRIPOS>BOND
     1     1     7    1
     2     1    11    1
     3     2     9    2
     4     3    10    2
     5     4    10    1
     6     5     9   am
     7     5    11    1
     8     6     9    1
     9     7     8    2
    10     8    12    1
    11    10    12    1
    12    11    12    2
@<TRIPOS>SUBSTRUCTURE
     1 RES1        1 GROUP             0 ****  ****    0  
@<TRIPOS>MOLECULE
2PU4:A:OX6901
    17    17     1     0     0
SMALL
NO_CHARGES
****
Generated from the CSD

@<TRIPOS>ATOM
     1 C1      26.1430   5.1350  16.0590   C.2       1 RES1   0.0000
     2 O2      24.2090   7.0620  12.2640   O.2       1 RES1   0.0000
     3 C3      23.4430   6.8530  13.1840   C.2       1 RES1   0.0000
     4 O4      22.2060   6.1570  12.8810   O.3       1 RES1   0.0000
     5 C5      22.1020   5.4650  11.6270   C.3       1 RES1   0.0000
     6 C6      22.4940   6.3740  10.4560   C.3       1 RES1   0.0000
     7 C7      20.6790   5.0090  11.3680   C.3       1 RES1   0.0000
     8 C8      22.9990   4.2340  11.7360   C.3       1 RES1   0.0000
     9 N9      23.8000   7.3330  14.3620   N.am      1 RES1   0.0000
    10 C10     23.1930   7.2010  15.6600   C.3       1 RES1   0.0000
    11 C11     23.4530   8.5350  16.3720   C.3       1 RES1   0.0000
    12 C12     22.1680   9.3410  16.5390   C.3       1 RES1   0.0000
    13 C13     24.1630   8.4260  17.7200   C.3       1 RES1   0.0000
    14 C14     24.1450   6.1480  16.0990   C.2       1 RES1   0.0000
    15 O15     25.3890   6.2680  15.5250   O.3       1 RES1   0.0000
    16 N16     25.3300   4.4370  16.8800   N.2       1 RES1   0.0000
    17 N17     24.0720   5.0690  16.8930   N.2       1 RES1   0.0000
@<TRIPOS>BOND
     1     1    15    1
     2     1    16    2
     3     2     3    2
     4     3     4    1
     5     3     9   am
     6     4     5    1
     7     5     6    1
     8     5     7    1
     9     5     8    1
    10     9    10    1
    11    10    11    1
    12    10    14    1
    13    11    12    1
    14    11    13    1
    15    14    15    1
    16    14    17    2
    17    16    17    1
@<TRIPOS>SUBSTRUCTURE
     1 RES1        1 GROUP             0 ****  ****    0  
@<TRIPOS>MOLECULE
6WHF:A:9EP506
    26    27     1     0     0
SMALL
NO_CHARGES
****
Generated from the CSD

@<TRIPOS>ATOM
     1 C1      20.6620  12.4070  16.9890   C.2       1 RES1   0.0000
     2 O2      21.0440  11.2470  16.4340   O.3       1 RES1   0.0000
     3 C3      20.8270  10.0430  17.2140   C.3       1 RES1   0.0000
     4 C4      21.8610   9.0260  16.8150   C.2       1 RES1   0.0000
     5 S5      24.1340   8.5910  15.3280   S.3       1 RES1   0.0000
     6 C6      21.6420   7.6920  16.8110   C.2       1 RES1   0.0000
     7 C7      20.2440   7.1250  17.0480   C.2       1 RES1   0.0000
     8 O8      19.8420   6.3390  16.2100   O.co2     1 RES1   0.0000
     9 O9      19.6750   7.4680  18.0730   O.co2     1 RES1   0.0000
    10 N10     22.6870   6.7790  16.6260   N.2       1 RES1   0.0000
    11 C11     24.0930   7.1230  16.3830   C.3       1 RES1   0.0000
    12 C12     24.8780   6.0290  15.6090   C.3       1 RES1   0.0000
    13 N13     24.0520   5.3730  14.6110   N.am      1 RES1   0.0000
    14 C14     24.2220   5.6100  13.3130   C.2       1 RES1   0.0000
    15 C15     25.7050   4.9750  16.3760   C.2       1 RES1   0.0000
    16 O16     25.1190   4.1390  17.0010   O.2       1 RES1   0.0000
    17 C17     20.9180  13.5560  16.0780   C.3       1 RES1   0.0000
    18 C18     23.1590   9.6530  16.4090   C.3       1 RES1   0.0000
    19 O19     20.1960  12.4820  18.0910   O.2       1 RES1   0.0000
    20 C20     23.6180   4.5810  12.3810   C.3       1 RES1   0.0000
    21 O21     24.8170   6.6060  12.8980   O.2       1 RES1   0.0000
    22 C22     22.1940   4.8580  12.0060   C.2       1 RES1   0.0000
    23 C23     21.5610   4.4870  10.8270   C.2       1 RES1   0.0000
    24 S24     21.1380   5.7090  13.0400   S.3       1 RES1   0.0000
    25 C25     19.8710   5.6380  11.9090   C.2       1 RES1   0.0000
    26 C26     20.2250   4.9670  10.7940   C.2       1 RES1   0.0000
@<TRIPOS>BOND
     1     1     2    1
     2     1    17    1
     3     1    19    2
     4     2     3    1
     5     3     4    1
     6     4     6    2
     7     4    18    1
     8     5    11    1
     9     5    18    1
    10     6     7    1
    11     6    10    1
    12     7     8    2
    13     7     9    1
    14    10    11    1
    15    11    12    1
    16    12    13    1
    17    12    15    1
    18    13    14   am
    19    14    20    1
    20    14    21    2
    21    15    16    2
    22    20    22    1
    23    22    23    2
    24    22    24    1
    25    23    26    1
    26    24    25    1
    27    25    26    2
@<TRIPOS>SUBSTRUCTURE
     1 RES1        1 GROUP             0 ****  ****    0  
@<TRIPOS>MOLECULE
4E3O:A:0NG401
    10     9     1     0     0
SMALL
NO_CHARGES
****
Generated from the CSD

@<TRIPOS>ATOM
     1 B1      26.1730   4.9390  16.1550   B         1 RES1   0.0000
     2 O2      25.1050   3.9640  16.4500   O.3       1 RES1   0.0000
     3 O3      26.3460   5.8020  17.3140   O.3       1 RES1   0.0000
     4 C4      25.8280   5.7570  14.8590   C.3       1 RES1   0.0000
     5 N5      24.4200   6.1280  14.7460   N.2       1 RES1   0.0000
     6 S6      23.7040   6.2090  13.3050   S.o2      1 RES1   0.0000
     7 O7      22.4230   6.8320  13.4050   O.2       1 RES1   0.0000
     8 O8      24.4290   7.1190  12.4620   O.2       1 RES1   0.0000
     9 C9      23.5930   4.6180  12.5340   C.3       1 RES1   0.0000
    10 Cl10    22.4310   4.4100  11.2670   Cl        1 RES1   0.0000
@<TRIPOS>BOND
     1     1     2    1
     2     1     3    1
     3     1     4    1
     4     4     5    1
     5     5     6    1
     6     6     7    2
     7     6     8    2
     8     6     9    1
     9     9    10    1
@<TRIPOS>SUBSTRUCTURE
     1 RES1        1 GROUP             0 ****  ****    0  
@<TRIPOS>MOLECULE
4E3N:A:0NE401
    23    24     1     0     0
SMALL
NO_CHARGES
****
Generated from the CSD

@<TRIPOS>ATOM
     1 B1      26.1150   4.8870  16.0760   B         1 RES1   0.0000
     2 O2      25.0440   3.9140  16.3080   O.3       1 RES1   0.0000
     3 O3      26.2720   5.6890  17.2930   O.3       1 RES1   0.0000
     4 C4      25.7670   5.8220  14.8480   C.3       1 RES1   0.0000
     5 N5      24.5750   6.6430  15.0670   N.2       1 RES1   0.0000
     6 S6      23.9210   7.5600  13.9000   S.o2      1 RES1   0.0000
     7 O7      23.1290   8.6230  14.4730   O.2       1 RES1   0.0000
     8 O8      24.9430   8.1420  13.0550   O.2       1 RES1   0.0000
     9 C9      22.8480   6.5380  12.8500   C.2       1 RES1   0.0000
    10 C10     23.3620   6.1770  11.5940   C.2       1 RES1   0.0000
    11 C11     22.6150   5.4520  10.7330   C.2       1 RES1   0.0000
    12 C12     21.3330   5.0470  11.1030   C.2       1 RES1   0.0000
    13 C13     20.5390   4.3050  10.2400   C.2       1 RES1   0.0000
    14 N14     19.4250   3.6580  10.5980   N.2       1 RES1   0.0000
    15 N15     18.8820   3.0670   9.5000   N.2       1 RES1   0.0000
    16 N16     19.6900   3.3680   8.4230   N.2       1 RES1   0.0000
    17 N17     20.7140   4.1320   8.8830   N.2       1 RES1   0.0000
    18 C18     20.8410   5.4020  12.3630   C.2       1 RES1   0.0000
    19 C19     21.5670   6.1420  13.2390   C.2       1 RES1   0.0000
    20 C20     20.9570   6.4570  14.5900   C.3       1 RES1   0.0000
    21 F21     19.9570   5.5390  14.8360   F         1 RES1   0.0000
    22 F22     20.3950   7.6570  14.5870   F         1 RES1   0.0000
    23 F23     21.7880   6.3580  15.5770   F         1 RES1   0.0000
@<TRIPOS>BOND
     1     1     2    1
     2     1     3    1
     3     1     4    1
     4     4     5    1
     5     5     6    1
     6     6     7    2
     7     6     8    2
     8     6     9    1
     9     9    10    2
    10     9    19    1
    11    10    11    1
    12    11    12    2
    13    12    13    1
    14    12    18    1
    15    13    14    2
    16    13    17    1
    17    14    15    1
    18    15    16    1
    19    16    17    2
    20    18    19    2
    21    19    20    1
    22    20    21    1
    23    20    22    1
    24    20    23    1
@<TRIPOS>SUBSTRUCTURE
     1 RES1        1 GROUP             0 ****  ****    0  
@<TRIPOS>MOLECULE
6DPY:A:H7A401
    25    27     1     0     0
SMALL
NO_CHARGES
****
Generated from the CSD

@<TRIPOS>ATOM
     1 S1      25.1250   5.4600  13.7630   S.o2      1 RES1   0.0000
     2 F2      20.2780   6.7490  16.6330   F         1 RES1   0.0000
     3 O3      26.2450   4.5750  14.0520   O.2       1 RES1   0.0000
     4 O4      25.4740   6.0160  12.4510   O.2       1 RES1   0.0000
     5 O5      24.9760   5.2020  18.4740   O.co2     1 RES1   0.0000
     6 O6      24.5840   4.1390  16.6140   O.co2     1 RES1   0.0000
     7 O7      20.2760   5.0910  11.2610   O.3       1 RES1   0.0000
     8 O8      24.9920   8.7220  16.0020   O.3       1 RES1   0.0000
     9 N9      23.6920   4.5410  13.7000   N.2       1 RES1   0.0000
    10 C10     25.2140   8.7360  13.4500   C.3       1 RES1   0.0000
    11 C11     24.7620   8.1590  18.4910   C.3       1 RES1   0.0000
    12 C12     21.5070   5.1020  10.5750   C.2       1 RES1   0.0000
    13 C13     19.1210   6.5470  14.5200   C.2       1 RES1   0.0000
    14 C14     22.7900   5.1830  11.3740   C.3       1 RES1   0.0000
    15 C15     19.0990   6.1390  13.1850   C.2       1 RES1   0.0000
    16 C16     21.3910   5.7510  14.7680   C.2       1 RES1   0.0000
    17 C17     24.8110   5.2240  17.2230   C.2       1 RES1   0.0000
    18 C18     25.0380   6.7180  15.0650   C.2       1 RES1   0.0000
    19 C19     20.2640   6.3540  15.3180   C.2       1 RES1   0.0000
    20 C20     25.0880   8.0760  14.8260   C.2       1 RES1   0.0000
    21 C21     24.8840   7.8220  17.0040   C.2       1 RES1   0.0000
    22 C22     20.2380   5.5390  12.6350   C.2       1 RES1   0.0000
    23 C23     22.5620   4.6420  12.7520   C.3       1 RES1   0.0000
    24 C24     21.3590   5.3560  13.4310   C.2       1 RES1   0.0000
    25 C25     24.9140   6.5440  16.4450   C.2       1 RES1   0.0000
@<TRIPOS>BOND
     1     1     3    2
     2     1     4    2
     3     1     9    1
     4     1    18    1
     5     2    19    1
     6     5    17    2
     7     6    17    1
     8     7    12    1
     9     7    22    1
    10     8    20    1
    11     8    21    1
    12     9    23    1
    13    10    20    1
    14    11    21    1
    15    12    14    1
    16    13    15    1
    17    13    19    2
    18    14    23    1
    19    15    22    2
    20    16    19    1
    21    16    24    2
    22    17    25    1
    23    18    20    2
    24    18    25    1
    25    21    25    2
    26    22    24    1
    27    23    24    1
@<TRIPOS>SUBSTRUCTURE
     1 RES1        1 GROUP             0 ****  ****    0  
@<TRIPOS>MOLECULE
6DPZ:A:H7D401
    20    21     1     0     0
SMALL
NO_CHARGES
****
Generated from the CSD

@<TRIPOS>ATOM
     1 S1      24.7670   5.2560  13.6560   S.o2      1 RES1   0.0000
     2 O2      25.7050   4.2080  13.9020   O.2       1 RES1   0.0000
     3 O3      25.4280   6.5300  13.5940   O.2       1 RES1   0.0000
     4 O4      25.0040   5.6940  18.8370   O.co2     1 RES1   0.0000
     5 O5      24.8400   4.3210  17.1540   O.co2     1 RES1   0.0000
     6 N6      23.7450   5.2760  14.9120   N.2       1 RES1   0.0000
     7 N7      24.0410   4.9770  12.2370   N.3       1 RES1   0.0000
     8 C8      23.6680   6.2080  11.5280   C.3       1 RES1   0.0000
     9 C9      22.8180   4.1670  12.3370   C.3       1 RES1   0.0000
    10 C10     22.6820   5.7220  10.4740   C.3       1 RES1   0.0000
    11 C11     22.0430   4.4700  11.0600   C.3       1 RES1   0.0000
    12 C12     22.2850   9.3420  16.6510   C.3       1 RES1   0.0000
    13 C13     23.6210  10.0680  16.5580   C.3       1 RES1   0.0000
    14 C14     22.0150   8.3530  15.5220   C.3       1 RES1   0.0000
    15 C15     24.8680   9.1830  16.5670   C.3       1 RES1   0.0000
    16 C16     22.3620   6.9430  15.9960   C.3       1 RES1   0.0000
    17 C17     24.7530   7.9890  17.5040   C.3       1 RES1   0.0000
    18 C18     24.8880   5.5400  17.6350   C.2       1 RES1   0.0000
    19 C19     23.7880   6.6000  15.5700   C.3       1 RES1   0.0000
    20 C20     24.8620   6.7050  16.6840   C.3       1 RES1   0.0000
@<TRIPOS>BOND
     1     1     2    2
     2     1     3    2
     3     1     6    1
     4     1     7    1
     5     4    18    2
     6     5    18    1
     7     6    19    1
     8     7     8    1
     9     7     9    1
    10     8    10    1
    11     9    11    1
    12    10    11    1
    13    12    13    1
    14    12    14    1
    15    13    15    1
    16    14    16    1
    17    15    17    1
    18    16    19    1
    19    17    20    1
    20    18    20    1
    21    19    20    1
@<TRIPOS>SUBSTRUCTURE
     1 RES1        1 GROUP             0 ****  ****    0  
@<TRIPOS>MOLECULE
4LV1:A:NL9401
    15    16     1     0     0
SMALL
NO_CHARGES
****
Generated from the CSD

@<TRIPOS>ATOM
     1 B1      26.0900   4.8970  16.0890   B         1 RES1   0.0000
     2 O2      25.0190   3.9250  16.5120   O.3       1 RES1   0.0000
     3 O3      26.2200   5.8230  17.2560   O.3       1 RES1   0.0000
     4 C4      25.5280   5.6010  14.7820   C.2       1 RES1   0.0000
     5 C5      25.5410   6.9570  14.4350   C.2       1 RES1   0.0000
     6 N6      24.9140   7.0870  13.2590   N.2       1 RES1   0.0000
     7 N7      24.4530   5.8860  12.8490   N.pl3     1 RES1   0.0000
     8 C8      23.7230   5.6860  11.7280   C.2       1 RES1   0.0000
     9 C9      22.7850   4.6510  11.6940   C.2       1 RES1   0.0000
    10 C10     22.0090   4.4480  10.5560   C.2       1 RES1   0.0000
    11 C11     22.1380   5.2730   9.4640   C.2       1 RES1   0.0000
    12 C12     23.0320   6.3210   9.5150   C.2       1 RES1   0.0000
    13 Cl13    23.1900   7.3760   8.1320   Cl        1 RES1   0.0000
    14 C14     23.8230   6.5460  10.6390   C.2       1 RES1   0.0000
    15 C15     24.8260   4.9760  13.7550   C.2       1 RES1   0.0000
@<TRIPOS>BOND
     1     1     2    1
     2     1     3    1
     3     1     4    1
     4     4     5    1
     5     4    15    2
     6     5     6    2
     7     6     7    1
     8     7     8    1
     9     7    15    1
    10     8     9    2
    11     8    14    1
    12     9    10    1
    13    10    11    2
    14    11    12    1
    15    12    13    1
    16    12    14    2
@<TRIPOS>SUBSTRUCTURE
     1 RES1        1 GROUP             0 ****  ****    0  
@<TRIPOS>MOLECULE
1I5Q:A:MOX964
    29    30     1     0     0
SMALL
NO_CHARGES
****
Generated from the CSD

@<TRIPOS>ATOM
     1 C1      25.9790   4.9090  16.1610   C.2       1 RES1   0.0000
     2 O2      25.0850   4.2500  16.7630   O.2       1 RES1   0.0000
     3 C3      25.6210   6.2130  15.4540   C.3       1 RES1   0.0000
     4 N4      24.4290   6.0110  14.6430   N.am      1 RES1   0.0000
     5 C5      25.3210   7.4290  16.6000   C.3       1 RES1   0.0000
     6 O6      23.9150   7.7600  16.4750   O.3       1 RES1   0.0000
     7 C7      23.3560   8.3660  17.6810   C.3       1 RES1   0.0000
     8 C8      23.4830   7.3410  18.7750   C.2       1 RES1   0.0000
     9 C9      24.8580   6.7760  18.9100   C.2       1 RES1   0.0000
    10 C10     25.4560   6.1230  20.1350   C.2       1 RES1   0.0000
    11 N11     25.6480   6.8580  17.8830   N.2       1 RES1   0.0000
    12 C12     22.3860   6.9710  19.4940   C.2       1 RES1   0.0000
    13 C13     24.1600   4.9720  13.7800   C.2       1 RES1   0.0000
    14 O14     24.9440   4.0630  13.6540   O.2       1 RES1   0.0000
    15 C15     22.8340   5.0720  12.9590   C.3       1 RES1   0.0000
    16 C16     23.1320   5.7260  11.6300   C.2       1 RES1   0.0000
    17 C17     23.9110   6.9230  11.6230   C.2       1 RES1   0.0000
    18 C18     24.2350   7.5830  10.4250   C.2       1 RES1   0.0000
    19 C19     23.7830   7.0640   9.1880   C.2       1 RES1   0.0000
    20 O20     24.1320   7.7500   8.0450   O.3       1 RES1   0.0000
    21 C21     23.0020   5.8730   9.1650   C.2       1 RES1   0.0000
    22 C22     22.6800   5.2060  10.3810   C.2       1 RES1   0.0000
    23 C23     21.6180   5.7830  13.6840   C.2       1 RES1   0.0000
    24 O24     20.4130   5.4780  13.3490   O.co2     1 RES1   0.0000
    25 O25     21.8960   6.6540  14.5350   O.co2     1 RES1   0.0000
    26 O26     26.7110   6.5920  14.6580   O.3       1 RES1   0.0000
    27 C27     26.6400   7.8730  13.9750   C.3       1 RES1   0.0000
    28 O28     24.7110   6.0270  21.1530   O.co2     1 RES1   0.0000
    29 O29     26.6590   5.7500  20.0140   O.co2     1 RES1   0.0000
@<TRIPOS>BOND
     1     1     2    2
     2     1     3    1
     3     3     4    1
     4     3     5    1
     5     3    26    1
     6     4    13   am
     7     5     6    1
     8     5    11    1
     9     6     7    1
    10     7     8    1
    11     8     9    1
    12     8    12    2
    13     9    10    1
    14     9    11    2
    15    10    28    2
    16    10    29    1
    17    13    14    2
    18    13    15    1
    19    15    16    1
    20    15    23    1
    21    16    17    2
    22    16    22    1
    23    17    18    1
    24    18    19    2
    25    19    20    1
    26    19    21    1
    27    21    22    2
    28    23    24    1
    29    23    25    2
    30    26    27    1
@<TRIPOS>SUBSTRUCTURE
     1 RES1        1 GROUP             0 ****  ****    0  
@<TRIPOS>MOLECULE
4LV2:A:N95401
    15    16     1     0     0
SMALL
NO_CHARGES
****
Generated from the CSD

@<TRIPOS>ATOM
     1 B1      25.9930   4.8180  16.0980   B         1 RES1   0.0000
     2 O2      26.2110   5.8360  17.1300   O.3       1 RES1   0.0000
     3 O3      24.9690   3.8690  16.5830   O.3       1 RES1   0.0000
     4 C4      25.4840   5.4540  14.7650   C.2       1 RES1   0.0000
     5 C5      25.7630   6.7460  14.2710   C.2       1 RES1   0.0000
     6 N6      25.1210   6.8650  13.0980   N.2       1 RES1   0.0000
     7 N7      24.4240   5.7240  12.8020   N.pl3     1 RES1   0.0000
     8 C8      23.6420   5.5060  11.7130   C.2       1 RES1   0.0000
     9 C9      23.6440   6.3500  10.6020   C.2       1 RES1   0.0000
    10 C10     22.8050   6.0460   9.5330   C.2       1 RES1   0.0000
    11 Cl11    22.7780   7.0650   8.1160   Cl        1 RES1   0.0000
    12 N12     22.0230   4.9630   9.5620   N.2       1 RES1   0.0000
    13 C13     22.0290   4.1680  10.6470   C.2       1 RES1   0.0000
    14 N14     22.8380   4.4270  11.6870   N.2       1 RES1   0.0000
    15 C15     24.6200   4.8730  13.8290   C.2       1 RES1   0.0000
@<TRIPOS>BOND
     1     1     2    1
     2     1     3    1
     3     1     4    1
     4     4     5    1
     5     4    15    2
     6     5     6    2
     7     6     7    1
     8     7     8    1
     9     7    15    1
    10     8     9    2
    11     8    14    1
    12     9    10    1
    13    10    11    1
    14    10    12    2
    15    12    13    1
    16    13    14    2
@<TRIPOS>SUBSTRUCTURE
     1 RES1        1 GROUP             0 ****  ****    0  
@<TRIPOS>MOLECULE
4LV3:A:25N401
    17    17     1     0     0
SMALL
NO_CHARGES
****
Generated from the CSD

@<TRIPOS>ATOM
     1 B1      25.9940   4.9120  16.3240   B         1 RES1   0.0000
     2 O2      26.0910   5.6100  17.6160   O.3       1 RES1   0.0000
     3 O3      25.0060   3.8200  16.5220   O.3       1 RES1   0.0000
     4 C4      25.4870   5.9050  15.1990   C.2       1 RES1   0.0000
     5 C5      24.6790   5.4810  14.1390   C.2       1 RES1   0.0000
     6 C6      24.1420   6.3800  13.1780   C.2       1 RES1   0.0000
     7 C7      23.2270   5.8810  12.0250   C.3       1 RES1   0.0000
     8 C8      21.8540   6.4680  12.2950   C.3       1 RES1   0.0000
     9 C9      23.0350   4.3630  12.0050   C.3       1 RES1   0.0000
    10 C10     23.7140   6.3610  10.6720   C.3       1 RES1   0.0000
    11 C11     24.4720   7.7480  13.3110   C.2       1 RES1   0.0000
    12 C12     25.2870   8.1850  14.3630   C.2       1 RES1   0.0000
    13 C13     25.6330   9.6870  14.5320   C.3       1 RES1   0.0000
    14 C14     25.2670  10.1970  15.9050   C.3       1 RES1   0.0000
    15 C15     24.8990  10.5410  13.5070   C.3       1 RES1   0.0000
    16 C16     27.1250   9.8600  14.4050   C.3       1 RES1   0.0000
    17 C17     25.8070   7.2580  15.3130   C.2       1 RES1   0.0000
@<TRIPOS>BOND
     1     1     2    1
     2     1     3    1
     3     1     4    1
     4     4     5    2
     5     4    17    1
     6     5     6    1
     7     6     7    1
     8     6    11    2
     9     7     8    1
    10     7     9    1
    11     7    10    1
    12    11    12    1
    13    12    13    1
    14    12    17    2
    15    13    14    1
    16    13    15    1
    17    13    16    1
@<TRIPOS>SUBSTRUCTURE
     1 RES1        1 GROUP             0 ****  ****    0  
@<TRIPOS>MOLECULE
6DPT:A:H7M401
    25    27     1     0     0
SMALL
NO_CHARGES
****
Generated from the CSD

@<TRIPOS>ATOM
     1 Cl1     24.7580   5.1320  19.7360   Cl        1 RES1   0.0000
     2 S2      22.9850   4.4440  11.3410   S.3       1 RES1   0.0000
     3 S3      25.0240   5.9920  14.2820   S.o2      1 RES1   0.0000
     4 O4      26.2430   5.2390  13.9580   O.2       1 RES1   0.0000
     5 O5      24.8910   7.0500  13.2710   O.2       1 RES1   0.0000
     6 O6      24.9460   4.3210  16.6790   O.3       1 RES1   0.0000
     7 N7      23.7430   4.8940  14.1500   N.2       1 RES1   0.0000
     8 N8      20.8270   4.5290   8.0440   N.2       1 RES1   0.0000
     9 N9      21.1720   3.9860   9.2410   N.2       1 RES1   0.0000
    10 N10     22.4120   5.7030   8.8870   N.pl3     1 RES1   0.0000
    11 C11     23.4170   6.7300   9.0720   C.3       1 RES1   0.0000
    12 C12     21.5990   5.5820   7.8490   C.2       1 RES1   0.0000
    13 C13     19.8480   6.2380  13.2720   C.2       1 RES1   0.0000
    14 C14     20.3340   6.3900  14.5540   C.2       1 RES1   0.0000
    15 C15     24.7660   8.5040  17.4820   C.2       1 RES1   0.0000
    16 C16     24.7320   7.5850  18.5530   C.2       1 RES1   0.0000
    17 C17     20.6380   5.6580  12.2670   C.2       1 RES1   0.0000
    18 C18     24.8640   8.0460  16.1880   C.2       1 RES1   0.0000
    19 C19     21.5970   5.9650  14.8790   C.2       1 RES1   0.0000
    20 C20     22.1440   4.7240   9.7310   C.2       1 RES1   0.0000
    21 C21     24.7970   6.2180  18.3190   C.2       1 RES1   0.0000
    22 C22     21.9010   5.2370  12.5900   C.2       1 RES1   0.0000
    23 C23     24.9380   6.6840  15.9690   C.2       1 RES1   0.0000
    24 C24     24.8920   5.7440  17.0320   C.2       1 RES1   0.0000
    25 C25     22.3900   5.3880  13.8770   C.2       1 RES1   0.0000
@<TRIPOS>BOND
     1     1    21    1
     2     2    20    1
     3     2    22    1
     4     3     4    2
     5     3     5    2
     6     3     7    1
     7     3    23    1
     8     6    24    1
     9     7    25    1
    10     8     9    1
    11     8    12    2
    12     9    20    2
    13    10    11    1
    14    10    12    1
    15    10    20    1
    16    13    14    2
    17    13    17    1
    18    14    19    1
    19    15    16    2
    20    15    18    1
    21    16    21    1
    22    17    22    2
    23    18    23    2
    24    19    25    2
    25    21    24    2
    26    22    25    1
    27    23    24    1
@<TRIPOS>SUBSTRUCTURE
     1 RES1        1 GROUP             0 ****  ****    0  
@<TRIPOS>MOLECULE
3O87:A:BSG1
    18    18     1     0     0
SMALL
NO_CHARGES
****
Generated from the CSD

@<TRIPOS>ATOM
     1 O1      19.8140   3.9840   7.6050   O.co2     1 RES1   0.0000
     2 O2      22.8620   7.9820  13.5870   O.2       1 RES1   0.0000
     3 O3      24.6370   6.8920  12.1680   O.2       1 RES1   0.0000
     4 O4      18.2860   5.0840   8.7520   O.co2     1 RES1   0.0000
     5 O5      26.3420   5.8790  17.3030   O.3       1 RES1   0.0000
     6 O6      25.0870   3.9650  16.4010   O.3       1 RES1   0.0000
     7 C7      22.5610   4.6670  10.8460   C.2       1 RES1   0.0000
     8 C8      20.6580   5.4770  12.1090   C.2       1 RES1   0.0000
     9 C9      21.7510   4.4710   9.7340   C.2       1 RES1   0.0000
    10 C10     19.8540   5.2770  10.9920   C.2       1 RES1   0.0000
    11 C11     25.8580   5.7780  14.6720   C.3       1 RES1   0.0000
    12 C12     22.8380   5.3110  13.2710   C.3       1 RES1   0.0000
    13 N13     24.6370   6.5640  14.8320   N.2       1 RES1   0.0000
    14 C14     19.4340   4.6060   8.6230   C.2       1 RES1   0.0000
    15 C15     22.0070   5.1690  12.0220   C.2       1 RES1   0.0000
    16 C16     20.4030   4.8390   9.7920   C.2       1 RES1   0.0000
    17 S17     23.8230   6.8320  13.4200   S.o2      1 RES1   0.0000
    18 B18     26.1500   5.0280  16.0790   B         1 RES1   0.0000
@<TRIPOS>BOND
     1     1    14    1
     2     2    17    2
     3     3    17    2
     4     4    14    2
     5     5    18    1
     6     6    18    1
     7     7     9    2
     8     7    15    1
     9     8    10    1
    10     8    15    2
    11     9    16    1
    12    10    16    2
    13    11    13    1
    14    11    18    1
    15    12    15    1
    16    12    17    1
    17    13    17    1
    18    14    16    1
@<TRIPOS>SUBSTRUCTURE
     1 RES1        1 GROUP             0 ****  ****    0  
@<TRIPOS>MOLECULE
3O86:A:BSF1
    15    15     1     0     0
SMALL
NO_CHARGES
****
Generated from the CSD

@<TRIPOS>ATOM
     1 O1      22.8020   7.9800  13.7990   O.2       1 RES1   0.0000
     2 O2      24.6900   7.2560  12.3530   O.2       1 RES1   0.0000
     3 O3      25.0860   3.9250  16.3990   O.3       1 RES1   0.0000
     4 O4      26.3050   5.7660  17.3570   O.3       1 RES1   0.0000
     5 C5      20.6690   5.6320   9.5230   C.2       1 RES1   0.0000
     6 C6      21.9850   5.2020   9.4890   C.2       1 RES1   0.0000
     7 C7      20.0640   5.9510  10.7410   C.2       1 RES1   0.0000
     8 C8      22.7030   5.1160  10.6690   C.2       1 RES1   0.0000
     9 C9      20.7850   5.8640  11.9260   C.2       1 RES1   0.0000
    10 C10     25.8220   5.7800  14.7280   C.3       1 RES1   0.0000
    11 C11     22.9100   5.3500  13.1440   C.3       1 RES1   0.0000
    12 N12     24.5830   6.5310  14.9270   N.2       1 RES1   0.0000
    13 C13     22.1060   5.4440  11.8720   C.2       1 RES1   0.0000
    14 S14     23.8120   6.8920  13.5180   S.o2      1 RES1   0.0000
    15 B15     26.1820   4.9620  16.0780   B         1 RES1   0.0000
@<TRIPOS>BOND
     1     1    14    2
     2     2    14    2
     3     3    15    1
     4     4    15    1
     5     5     6    2
     6     5     7    1
     7     6     8    1
     8     7     9    2
     9     8    13    2
    10     9    13    1
    11    10    12    1
    12    10    15    1
    13    11    13    1
    14    11    14    1
    15    12    14    1
@<TRIPOS>SUBSTRUCTURE
     1 RES1        1 GROUP             0 ****  ****    0  
@<TRIPOS>MOLECULE
1IEM:A:CB4964
    22    22     1     0     0
SMALL
NO_CHARGES
****
Generated from the CSD

@<TRIPOS>ATOM
     1 B1      26.2530   4.9780  16.3690   B         1 RES1   0.0000
     2 O2      25.1030   4.0520  16.5040   O.3       1 RES1   0.0000
     3 O3      26.4560   5.7080  17.6320   O.3       1 RES1   0.0000
     4 C4      25.9830   5.9890  15.2100   C.3       1 RES1   0.0000
     5 N5      24.5570   5.9680  14.8720   N.am      1 RES1   0.0000
     6 C6      24.0980   6.3890  13.6910   C.2       1 RES1   0.0000
     7 O7      24.8680   6.8190  12.8200   O.2       1 RES1   0.0000
     8 C8      22.6790   6.3380  13.4300   C.2       1 RES1   0.0000
     9 N9      21.7200   6.9510  14.1920   N.2       1 RES1   0.0000
    10 O10     22.2460   7.7820  15.3010   O.3       1 RES1   0.0000
    11 C11     21.4500   8.9810  15.4870   C.3       1 RES1   0.0000
    12 C12     22.0770   5.6020  12.2810   C.2       1 RES1   0.0000
    13 C13     22.8110   4.7980  11.3390   C.2       1 RES1   0.0000
    14 S14     21.8400   4.0970  10.1570   S.3       1 RES1   0.0000
    15 C15     20.4640   4.7970  10.8230   C.2       1 RES1   0.0000
    16 N16     19.1710   4.6350  10.3250   N.pl3     1 RES1   0.0000
    17 N17     20.7560   5.5330  11.8950   N.2       1 RES1   0.0000
    18 C18     21.2550   9.7160  14.1250   C.3       1 RES1   0.0000
    19 C19     22.2220   9.9430  16.4290   C.3       1 RES1   0.0000
    20 C20     20.0890   8.6380  16.1370   C.2       1 RES1   0.0000
    21 O21     19.0220   9.1050  15.6180   O.co2     1 RES1   0.0000
    22 O22     20.0830   7.9020  17.1830   O.co2     1 RES1   0.0000
@<TRIPOS>BOND
     1     1     2    1
     2     1     3    1
     3     1     4    1
     4     4     5    1
     5     5     6   am
     6     6     7    2
     7     6     8    1
     8     8     9    2
     9     8    12    1
    10     9    10    1
    11    10    11    1
    12    11    18    1
    13    11    19    1
    14    11    20    1
    15    12    13    2
    16    12    17    1
    17    13    14    1
    18    14    15    1
    19    15    16    1
    20    15    17    2
    21    20    21    2
    22    20    22    1
@<TRIPOS>SUBSTRUCTURE
     1 RES1        1 GROUP             0 ****  ****    0  
@<TRIPOS>MOLECULE
3O88:A:BSH1
    25    26     1     0     0
SMALL
NO_CHARGES
****
Generated from the CSD

@<TRIPOS>ATOM
     1 O1      20.6760  10.3080  14.5380   O.co2     1 RES1   0.0000
     2 O2      26.6030   4.6830  13.2170   O.2       1 RES1   0.0000
     3 O3      24.6260   3.0190  13.5130   O.2       1 RES1   0.0000
     4 O4      20.6890   9.8840  12.3450   O.co2     1 RES1   0.0000
     5 O5      24.9480   4.1350  17.1970   O.3       1 RES1   0.0000
     6 O6      26.7080   5.8320  17.9650   O.3       1 RES1   0.0000
     7 C7      19.9220   4.9260  11.3680   C.2       1 RES1   0.0000
     8 C8      20.4560   5.7540  12.3520   C.2       1 RES1   0.0000
     9 C9      20.7950   4.2240  10.5380   C.2       1 RES1   0.0000
    10 C10     24.7460   8.9870  12.4490   C.2       1 RES1   0.0000
    11 C11     21.8360   5.8740  12.4980   C.2       1 RES1   0.0000
    12 C12     22.1760   4.3560  10.6770   C.2       1 RES1   0.0000
    13 C13     25.2500   8.3750  13.6060   C.2       1 RES1   0.0000
    14 C14     23.4380   9.4560  12.4500   C.2       1 RES1   0.0000
    15 C15     23.1590   8.6960  14.7310   C.2       1 RES1   0.0000
    16 C16     25.0910   7.5120  15.9320   C.3       1 RES1   0.0000
    17 C17     24.1850   5.3320  11.8420   C.3       1 RES1   0.0000
    18 N18     24.6470   5.3380  14.8420   N.2       1 RES1   0.0000
    19 C19     21.2260   9.8670  13.4800   C.2       1 RES1   0.0000
    20 C20     22.7210   5.1780  11.6580   C.2       1 RES1   0.0000
    21 C21     24.4820   8.2240  14.7590   C.2       1 RES1   0.0000
    22 C22     22.6400   9.3110  13.5840   C.2       1 RES1   0.0000
    23 C23     25.6110   6.0940  15.6120   C.3       1 RES1   0.0000
    24 S24     24.8940   4.6890  13.3940   S.o2      1 RES1   0.0000
    25 B25     26.0170   5.1380  16.8090   B         1 RES1   0.0000
@<TRIPOS>BOND
     1     1    19    1
     2     2    24    2
     3     3    24    2
     4     4    19    2
     5     5    25    1
     6     6    25    1
     7     7     8    2
     8     7     9    1
     9     8    11    1
    10     9    12    2
    11    10    13    2
    12    10    14    1
    13    11    20    2
    14    12    20    1
    15    13    21    1
    16    14    22    2
    17    15    21    2
    18    15    22    1
    19    16    21    1
    20    16    23    1
    21    17    20    1
    22    17    24    1
    23    18    23    1
    24    18    24    1
    25    19    22    1
    26    23    25    1
@<TRIPOS>SUBSTRUCTURE
     1 RES1        1 GROUP             0 ****  ****    0  
@<TRIPOS>MOLECULE
3GV9:A:GV91
    12    12     1     0     0
SMALL
NO_CHARGES
****
Generated from the CSD

@<TRIPOS>ATOM
     1 S1      24.2130   8.1700  17.9410   S.3       1 RES1   0.0000
     2 O2      24.6310   6.9630  12.9220   O.2       1 RES1   0.0000
     3 O3      24.7020   4.3890  16.9900   O.co2     1 RES1   0.0000
     4 O4      24.5970   5.3040  18.9700   O.co2     1 RES1   0.0000
     5 N5      24.1330   5.9060  14.8390   N.am      1 RES1   0.0000
     6 C6      23.8800   4.7150  12.7720   C.3       1 RES1   0.0000
     7 C7      23.9110   9.1740  16.5490   C.2       1 RES1   0.0000
     8 C8      23.8780   8.3720  15.4010   C.2       1 RES1   0.0000
     9 C9      24.2480   5.9680  13.5110   C.2       1 RES1   0.0000
    10 C10     24.5490   5.3820  17.7230   C.2       1 RES1   0.0000
    11 C11     24.2990   6.6930  17.0660   C.2       1 RES1   0.0000
    12 C12     24.0880   7.0020  15.6340   C.2       1 RES1   0.0000
@<TRIPOS>BOND
     1     1     7    1
     2     1    11    1
     3     2     9    2
     4     3    10    2
     5     4    10    1
     6     5     9   am
     7     5    12    1
     8     6     9    1
     9     7     8    2
    10     8    12    1
    11    10    11    1
    12    11    12    2
@<TRIPOS>SUBSTRUCTURE
     1 RES1        1 GROUP             0 ****  ****    0  
@<TRIPOS>MOLECULE
6DPX:A:H7G401
    22    23     1     0     0
SMALL
NO_CHARGES
****
Generated from the CSD

@<TRIPOS>ATOM
     1 Cl1     24.6240   5.2460  19.3600   Cl        1 RES1   0.0000
     2 S2      25.2320   5.4660  13.9060   S.o2      1 RES1   0.0000
     3 O3      26.5320   4.8000  13.9320   O.2       1 RES1   0.0000
     4 O4      25.2630   6.3440  12.7410   O.2       1 RES1   0.0000
     5 O5      19.2520   3.6250   8.4030   O.co2     1 RES1   0.0000
     6 O6      19.0140   3.1700  10.5120   O.co2     1 RES1   0.0000
     7 O7      24.9790   4.1880  16.5940   O.3       1 RES1   0.0000
     8 N8      23.9730   4.3260  13.7060   N.2       1 RES1   0.0000
     9 C9      24.7390   8.3540  16.7610   C.2       1 RES1   0.0000
    10 C10     20.5780   5.8890  13.4880   C.2       1 RES1   0.0000
    11 C11     24.6480   7.6170  17.9370   C.2       1 RES1   0.0000
    12 C12     24.9180   7.7220  15.5410   C.2       1 RES1   0.0000
    13 C13     21.8010   5.4640  14.0000   C.2       1 RES1   0.0000
    14 C14     20.2710   5.6510  12.1510   C.2       1 RES1   0.0000
    15 C15     20.8350   4.7140   9.8650   C.3       1 RES1   0.0000
    16 C16     22.3850   4.5630  11.8470   C.2       1 RES1   0.0000
    17 C17     19.6340   3.7830   9.5920   C.2       1 RES1   0.0000
    18 C18     24.7350   6.2300  17.8730   C.2       1 RES1   0.0000
    19 C19     24.9980   6.3410  15.4850   C.2       1 RES1   0.0000
    20 C20     24.9070   5.5950  16.6500   C.2       1 RES1   0.0000
    21 C21     22.6970   4.7980  13.1780   C.2       1 RES1   0.0000
    22 C22     21.1660   4.9820  11.3350   C.2       1 RES1   0.0000
@<TRIPOS>BOND
     1     1    18    1
     2     2     3    2
     3     2     4    2
     4     2     8    1
     5     2    19    1
     6     5    17    2
     7     6    17    1
     8     7    20    1
     9     8    21    1
    10     9    11    2
    11     9    12    1
    12    10    13    2
    13    10    14    1
    14    11    18    1
    15    12    19    2
    16    13    21    1
    17    14    22    2
    18    15    17    1
    19    15    22    1
    20    16    21    2
    21    16    22    1
    22    18    20    2
    23    19    20    1
@<TRIPOS>SUBSTRUCTURE
     1 RES1        1 GROUP             0 ****  ****    0  
@<TRIPOS>MOLECULE
4E3I:A:0N3401
    18    18     1     0     0
SMALL
NO_CHARGES
****
Generated from the CSD

@<TRIPOS>ATOM
     1 B1      26.2850   4.8640  16.1830   B         1 RES1   0.0000
     2 O2      25.3000   3.9910  16.8210   O.3       1 RES1   0.0000
     3 O3      26.4870   5.9960  17.1000   O.3       1 RES1   0.0000
     4 C4      25.7080   5.3260  14.7960   C.3       1 RES1   0.0000
     5 N5      24.2480   5.4700  14.7490   N.2       1 RES1   0.0000
     6 S6      23.4750   5.9190  13.4080   S.o2      1 RES1   0.0000
     7 O7      24.1180   7.0920  12.8550   O.2       1 RES1   0.0000
     8 O8      22.1340   6.2410  13.7290   O.2       1 RES1   0.0000
     9 C9      23.5170   4.6580  12.2470   C.3       1 RES1   0.0000
    10 C10     22.7360   4.8880  10.9800   C.2       1 RES1   0.0000
    11 C11     23.2220   5.7800  10.0210   C.2       1 RES1   0.0000
    12 C12     22.4770   5.9620   8.8490   C.2       1 RES1   0.0000
    13 C13     21.2820   5.2870   8.6150   C.2       1 RES1   0.0000
    14 C14     20.8370   4.4150   9.5910   C.2       1 RES1   0.0000
    15 C15     19.5430   3.6320   9.3820   C.2       1 RES1   0.0000
    16 O16     19.0710   2.9760  10.3340   O.co2     1 RES1   0.0000
    17 O17     18.9860   3.6300   8.2510   O.co2     1 RES1   0.0000
    18 C18     21.5610   4.2140  10.7540   C.2       1 RES1   0.0000
@<TRIPOS>BOND
     1     1     2    1
     2     1     3    1
     3     1     4    1
     4     4     5    1
     5     5     6    1
     6     6     7    2
     7     6     8    2
     8     6     9    1
     9     9    10    1
    10    10    11    2
    11    10    18    1
    12    11    12    1
    13    12    13    2
    14    13    14    1
    15    14    15    1
    16    14    18    2
    17    15    16    2
    18    15    17    1
@<TRIPOS>SUBSTRUCTURE
     1 RES1        1 GROUP             0 ****  ****    0  
@<TRIPOS>MOLECULE
4E3J:A:0N4401
    19    20     1     0     0
SMALL
NO_CHARGES
****
Generated from the CSD

@<TRIPOS>ATOM
     1 B1      26.0770   4.9120  16.1320   B         1 RES1   0.0000
     2 O2      26.2350   5.7280  17.3290   O.3       1 RES1   0.0000
     3 O3      25.0290   3.9140  16.3750   O.3       1 RES1   0.0000
     4 C4      25.7710   5.8400  14.8880   C.3       1 RES1   0.0000
     5 N5      24.6340   6.7380  15.0320   N.2       1 RES1   0.0000
     6 S6      24.0290   7.5690  13.7920   S.o2      1 RES1   0.0000
     7 O7      23.1770   8.5710  14.3310   O.2       1 RES1   0.0000
     8 O8      25.0250   8.2180  13.0190   O.2       1 RES1   0.0000
     9 C9      23.0480   6.5880  12.7170   C.2       1 RES1   0.0000
    10 C10     23.5310   6.1450  11.4740   C.2       1 RES1   0.0000
    11 C11     22.6940   5.3850  10.6060   C.2       1 RES1   0.0000
    12 C12     21.3960   5.0700  10.9980   C.2       1 RES1   0.0000
    13 C13     20.5780   4.3430  10.1550   C.2       1 RES1   0.0000
    14 N14     20.7530   4.1810   8.7910   N.2       1 RES1   0.0000
    15 N15     19.7160   3.4590   8.3410   N.2       1 RES1   0.0000
    16 N16     18.8860   3.1720   9.4460   N.2       1 RES1   0.0000
    17 N17     19.4500   3.7260  10.5410   N.2       1 RES1   0.0000
    18 C18     20.8960   5.5320  12.2330   C.2       1 RES1   0.0000
    19 C19     21.7240   6.2950  13.0880   C.2       1 RES1   0.0000
@<TRIPOS>BOND
     1     1     2    1
     2     1     3    1
     3     1     4    1
     4     4     5    1
     5     5     6    1
     6     6     7    2
     7     6     8    2
     8     6     9    1
     9     9    10    2
    10     9    19    1
    11    10    11    1
    12    11    12    2
    13    12    13    1
    14    12    18    1
    15    13    14    1
    16    13    17    2
    17    14    15    2
    18    15    16    1
    19    16    17    1
    20    18    19    2
@<TRIPOS>SUBSTRUCTURE
     1 RES1        1 GROUP             0 ****  ****    0  
@<TRIPOS>MOLECULE
4OLG:A:2TV401
    20    20     1     0     0
SMALL
NO_CHARGES
****
Generated from the CSD

@<TRIPOS>ATOM
     1 C1      26.3740  12.9160  20.2140   C.3       1 RES1   0.0000
     2 C2      26.5190  11.4610  19.7900   C.2       1 RES1   0.0000
     3 O3      27.3940  10.7360  20.2590   O.2       1 RES1   0.0000
     4 O4      25.6330  11.0680  18.8750   O.3       1 RES1   0.0000
     5 C5      24.9440   9.8850  19.3460   C.2       1 RES1   0.0000
     6 C6      25.1630   8.9200  18.3860   C.2       1 RES1   0.0000
     7 C7      25.9990   9.3800  17.3650   C.3       1 RES1   0.0000
     8 S8      25.4410   8.7330  15.7780   S.3       1 RES1   0.0000
     9 C9      24.5910   7.6230  18.4050   C.2       1 RES1   0.0000
    10 C10     23.7730   7.0100  19.3590   C.2       1 RES1   0.0000
    11 O11     22.5890   7.3640  19.5260   O.co2     1 RES1   0.0000
    12 O12     24.2350   6.0960  20.0450   O.co2     1 RES1   0.0000
    13 N13     24.8560   6.7840  17.4530   N.2       1 RES1   0.0000
    14 C14     25.7270   7.1140  16.3700   C.3       1 RES1   0.0000
    15 C15     25.6320   6.0320  15.3390   C.3       1 RES1   0.0000
    16 N16     24.4370   5.9640  14.5740   N.am      1 RES1   0.0000
    17 C17     24.5160   5.2420  13.4520   C.2       1 RES1   0.0000
    18 O18     23.5850   5.0700  12.6860   O.2       1 RES1   0.0000
    19 C19     25.7840   4.6920  16.0430   C.2       1 RES1   0.0000
    20 O20     25.0640   4.1430  16.8260   O.2       1 RES1   0.0000
@<TRIPOS>BOND
     1     1     2    1
     2     2     3    2
     3     2     4    1
     4     4     5    1
     5     5     6    2
     6     6     7    1
     7     6     9    1
     8     7     8    1
     9     8    14    1
    10     9    10    1
    11     9    13    2
    12    10    11    1
    13    10    12    2
    14    13    14    1
    15    14    15    1
    16    15    16    1
    17    15    19    1
    18    16    17   am
    19    17    18    2
    20    19    20    2
@<TRIPOS>SUBSTRUCTURE
     1 RES1        1 GROUP             0 ****  ****    0  
@<TRIPOS>MOLECULE
4OLD:A:2UZ401
    14    14     1     0     0
SMALL
NO_CHARGES
****
Generated from the CSD

@<TRIPOS>ATOM
     1 S1      23.1450   5.1640  12.0000   S.3       1 RES1   0.0000
     2 O2      23.2040   6.9780  14.7210   O.co2     1 RES1   0.0000
     3 O3      21.3150   7.4450  15.7290   O.co2     1 RES1   0.0000
     4 O4      19.6750   3.8200   8.5390   O.co2     1 RES1   0.0000
     5 O5      18.6920   3.5850  10.5160   O.co2     1 RES1   0.0000
     6 N6      19.7150   5.9320  14.6220   N.3       1 RES1   0.0000
     7 N7      20.4410   5.1880  11.6810   N.2       1 RES1   0.0000
     8 C8      23.0090   5.4710  10.1850   C.3       1 RES1   0.0000
     9 C9      21.8500   4.9090   9.6810   C.2       1 RES1   0.0000
    10 C10     21.9640   6.8250  14.9040   C.2       1 RES1   0.0000
    11 C11     19.6040   4.0930   9.7960   C.2       1 RES1   0.0000
    12 C12     21.5230   5.7940  12.5080   C.3       1 RES1   0.0000
    13 C13     21.1400   5.7760  14.0970   C.3       1 RES1   0.0000
    14 C14     20.6470   4.8150  10.4060   C.2       1 RES1   0.0000
@<TRIPOS>BOND
     1     1     8    1
     2     1    12    1
     3     2    10    1
     4     3    10    2
     5     4    11    1
     6     5    11    2
     7     6    13    1
     8     7    12    1
     9     7    14    1
    10     8     9    1
    11     9    14    2
    12    10    13    1
    13    11    14    1
    14    12    13    1
@<TRIPOS>SUBSTRUCTURE
     1 RES1        1 GROUP             0 ****  ****    0  
@<TRIPOS>MOLECULE
4E3K:A:0NA401
    19    20     1     0     0
SMALL
NO_CHARGES
****
Generated from the CSD

@<TRIPOS>ATOM
     1 B1      26.1230   4.9000  16.0440   B         1 RES1   0.0000
     2 O2      26.3280   5.7270  17.2370   O.3       1 RES1   0.0000
     3 O3      25.0700   3.9270  16.3240   O.3       1 RES1   0.0000
     4 C4      25.7310   5.7920  14.8070   C.3       1 RES1   0.0000
     5 N5      24.4930   6.5350  14.9520   N.2       1 RES1   0.0000
     6 S6      23.9260   7.4390  13.7310   S.o2      1 RES1   0.0000
     7 O7      23.0110   8.4160  14.2770   O.2       1 RES1   0.0000
     8 O8      24.9560   8.1360  13.0340   O.2       1 RES1   0.0000
     9 C9      23.0390   6.4620  12.5880   C.2       1 RES1   0.0000
    10 C10     23.5470   6.1310  11.3410   C.2       1 RES1   0.0000
    11 C11     22.7470   5.3630  10.5000   C.2       1 RES1   0.0000
    12 C12     21.4840   4.9650  10.9310   C.2       1 RES1   0.0000
    13 C13     20.6400   4.2320  10.1180   C.2       1 RES1   0.0000
    14 N14     20.7280   4.0480   8.7860   N.2       1 RES1   0.0000
    15 N15     19.6550   3.2920   8.4140   N.2       1 RES1   0.0000
    16 N16     18.8990   3.0470   9.5270   N.2       1 RES1   0.0000
    17 N17     19.5060   3.6720  10.5620   N.2       1 RES1   0.0000
    18 N18     21.0150   5.3300  12.1390   N.2       1 RES1   0.0000
    19 C19     21.7750   6.0580  12.9570   C.2       1 RES1   0.0000
@<TRIPOS>BOND
     1     1     2    1
     2     1     3    1
     3     1     4    1
     4     4     5    1
     5     5     6    1
     6     6     7    2
     7     6     8    2
     8     6     9    1
     9     9    10    2
    10     9    19    1
    11    10    11    1
    12    11    12    2
    13    12    13    1
    14    12    18    1
    15    13    14    2
    16    13    17    1
    17    14    15    1
    18    15    16    1
    19    16    17    2
    20    18    19    2
@<TRIPOS>SUBSTRUCTURE
     1 RES1        1 GROUP             0 ****  ****    0  
@<TRIPOS>MOLECULE
4E3L:A:0NB401
    20    21     1     0     0
SMALL
NO_CHARGES
****
Generated from the CSD

@<TRIPOS>ATOM
     1 B1      26.1190   4.8940  16.1220   B         1 RES1   0.0000
     2 O2      26.3120   5.7290  17.3030   O.3       1 RES1   0.0000
     3 O3      25.0420   3.9180  16.3510   O.3       1 RES1   0.0000
     4 C4      25.7920   5.8140  14.8860   C.3       1 RES1   0.0000
     5 N5      24.5980   6.6540  15.0460   N.2       1 RES1   0.0000
     6 S6      24.0230   7.5910  13.8480   S.o2      1 RES1   0.0000
     7 O7      23.1850   8.6390  14.4060   O.2       1 RES1   0.0000
     8 O8      25.0690   8.2290  13.0760   O.2       1 RES1   0.0000
     9 C9      22.9890   6.6400  12.7760   C.2       1 RES1   0.0000
    10 C10     23.5290   5.8560  11.7710   C.2       1 RES1   0.0000
    11 C11     22.7130   5.1040  10.9370   C.2       1 RES1   0.0000
    12 C12     21.3250   5.1430  11.0960   C.2       1 RES1   0.0000
    13 C13     20.4950   4.3930  10.2430   C.2       1 RES1   0.0000
    14 N14     20.6290   4.2050   8.8980   N.2       1 RES1   0.0000
    15 N15     19.6000   3.4250   8.4500   N.2       1 RES1   0.0000
    16 N16     18.8320   3.1010   9.5320   N.2       1 RES1   0.0000
    17 N17     19.3830   3.7210  10.6130   N.2       1 RES1   0.0000
    18 C18     20.7990   5.9470  12.1200   C.2       1 RES1   0.0000
    19 Cl19    19.0980   6.1170  12.4560   Cl        1 RES1   0.0000
    20 C20     21.6250   6.6710  12.9490   C.2       1 RES1   0.0000
@<TRIPOS>BOND
     1     1     2    1
     2     1     3    1
     3     1     4    1
     4     4     5    1
     5     5     6    1
     6     6     7    2
     7     6     8    2
     8     6     9    1
     9     9    10    2
    10     9    20    1
    11    10    11    1
    12    11    12    2
    13    12    13    1
    14    12    18    1
    15    13    14    1
    16    13    17    2
    17    14    15    1
    18    15    16    2
    19    16    17    1
    20    18    19    1
    21    18    20    2
@<TRIPOS>SUBSTRUCTURE
     1 RES1        1 GROUP             0 ****  ****    0  
@<TRIPOS>MOLECULE
4E3M:A:0ND401
    20    21     1     0     0
SMALL
NO_CHARGES
****
Generated from the CSD

@<TRIPOS>ATOM
     1 B1      26.1020   4.8960  16.0420   B         1 RES1   0.0000
     2 O2      25.0480   3.9000  16.2850   O.3       1 RES1   0.0000
     3 O3      26.2870   5.7290  17.2320   O.3       1 RES1   0.0000
     4 C4      25.7390   5.7720  14.7820   C.3       1 RES1   0.0000
     5 N5      24.6270   6.6650  15.0070   N.2       1 RES1   0.0000
     6 S6      24.0160   7.5580  13.8030   S.o2      1 RES1   0.0000
     7 O7      25.0520   8.1290  13.0060   O.2       1 RES1   0.0000
     8 O8      23.2290   8.6450  14.3490   O.2       1 RES1   0.0000
     9 C9      22.9990   6.5700  12.7480   C.2       1 RES1   0.0000
    10 C10     23.4260   6.3380  11.4440   C.2       1 RES1   0.0000
    11 C11     22.6460   5.5960  10.5620   C.2       1 RES1   0.0000
    12 C12     21.4160   5.0760  10.9990   C.2       1 RES1   0.0000
    13 C13     20.5730   4.3260  10.1780   C.2       1 RES1   0.0000
    14 N14     19.4510   3.6920  10.5860   N.2       1 RES1   0.0000
    15 N15     18.8720   3.0950   9.5050   N.2       1 RES1   0.0000
    16 N16     19.6350   3.4010   8.4150   N.2       1 RES1   0.0000
    17 N17     20.6710   4.1740   8.8440   N.2       1 RES1   0.0000
    18 C18     21.0120   5.3020  12.3030   C.2       1 RES1   0.0000
    19 C19     21.7910   6.0250  13.1780   C.2       1 RES1   0.0000
    20 Cl20    21.2160   6.2520  14.8010   Cl        1 RES1   0.0000
@<TRIPOS>BOND
     1     1     2    1
     2     1     3    1
     3     1     4    1
     4     4     5    1
     5     5     6    1
     6     6     7    2
     7     6     8    2
     8     6     9    1
     9     9    10    2
    10     9    19    1
    11    10    11    1
    12    11    12    2
    13    12    13    1
    14    12    18    1
    15    13    14    1
    16    13    17    2
    17    14    15    2
    18    15    16    1
    19    16    17    1
    20    18    19    2
    21    19    20    1
@<TRIPOS>SUBSTRUCTURE
     1 RES1        1 GROUP             0 ****  ****    0  
@<TRIPOS>MOLECULE
2I72:A:VA1964
    18    19     1     0     0
SMALL
NO_CHARGES
****
Generated from the CSD

@<TRIPOS>ATOM
     1 O1      23.6190   9.0060   7.9520   O.2       1 RES1   0.0000
     2 C2      22.4630   8.6050   8.1560   C.2       1 RES1   0.0000
     3 N3      22.1890   7.5840   8.8890   N.am      1 RES1   0.0000
     4 C4      20.9860   7.2730   9.2030   C.2       1 RES1   0.0000
     5 O5      20.0110   7.9660   8.8960   O.2       1 RES1   0.0000
     6 C6      23.2610   6.7200   9.3870   C.3       1 RES1   0.0000
     7 C7      23.7700   7.0230  10.7890   C.2       1 RES1   0.0000
     8 C8      24.1250   5.9380  11.5900   C.2       1 RES1   0.0000
     9 C9      24.6220   6.1250  12.8800   C.2       1 RES1   0.0000
    10 C10     25.0270   5.0740  13.8000   C.2       1 RES1   0.0000
    11 C11     23.9310   8.3380  11.2800   C.2       1 RES1   0.0000
    12 C12     24.4080   8.5520  12.5850   C.2       1 RES1   0.0000
    13 C13     24.7500   7.4220  13.3470   C.2       1 RES1   0.0000
    14 S14     25.3820   7.4430  14.9060   S.3       1 RES1   0.0000
    15 C15     25.4750   5.7150  14.9510   C.2       1 RES1   0.0000
    16 B16     25.9210   4.9460  16.2100   B         1 RES1   0.0000
    17 O17     24.9650   3.8070  16.5500   O.3       1 RES1   0.0000
    18 O18     26.2820   5.7390  17.4650   O.3       1 RES1   0.0000
@<TRIPOS>BOND
     1     1     2    2
     2     2     3   am
     3     3     4   am
     4     3     6    1
     5     4     5    2
     6     6     7    1
     7     7     8    2
     8     7    11    1
     9     8     9    1
    10     9    10    1
    11     9    13    2
    12    10    15    2
    13    11    12    2
    14    12    13    1
    15    13    14    1
    16    14    15    1
    17    15    16    1
    18    16    17    1
    19    16    18    1
@<TRIPOS>SUBSTRUCTURE
     1 RES1        1 GROUP             0 ****  ****    0  
@<TRIPOS>MOLECULE
2HDS:C:MOL1
    23    24     1     0     0
SMALL
NO_CHARGES
****
Generated from the CSD

@<TRIPOS>ATOM
     1 O1      18.9380   8.3920   9.8990   O.3       1 RES1   0.0000
     2 O2      21.8140  10.2520  14.8010   O.3       1 RES1   0.0000
     3 O3      19.0880  10.4680  14.6050   O.3       1 RES1   0.0000
     4 O4      17.7330   8.4200  13.0310   O.3       1 RES1   0.0000
     5 O5      21.1680   8.3260  11.7600   O.3       1 RES1   0.0000
     6 C6      19.1750   7.3070  10.7570   C.3       1 RES1   0.0000
     7 C7      21.9430   8.7910  12.8660   C.3       1 RES1   0.0000
     8 C8      21.1130   9.8050  13.6630   C.3       1 RES1   0.0000
     9 C9      19.7290   9.3410  13.9990   C.3       1 RES1   0.0000
    10 C10     19.0190   8.9200  12.7470   C.3       1 RES1   0.0000
    11 C11     19.8510   7.8090  12.0390   C.3       1 RES1   0.0000
    12 O12     22.2730   5.9600  10.4230   O.3       1 RES1   0.0000
    13 O13     25.7340   7.7180  14.6910   O.3       1 RES1   0.0000
    14 O14     23.6700   3.6210  13.0710   O.3       1 RES1   0.0000
    15 O15     22.5870   5.6510  15.3080   O.3       1 RES1   0.0000
    16 O16     22.2420   7.7090  13.6830   O.3       1 RES1   0.0000
    17 O17     24.0990   7.0970  12.4250   O.3       1 RES1   0.0000
    18 C18     23.6130   5.5430  10.5820   C.3       1 RES1   0.0000
    19 C19     24.4280   8.1840  14.5420   C.3       1 RES1   0.0000
    20 C20     23.2560   4.9840  13.0080   C.3       1 RES1   0.0000
    21 C21     24.0750   5.7230  11.9960   C.3       1 RES1   0.0000
    22 C22     23.5720   5.7890  14.2690   C.3       1 RES1   0.0000
    23 C23     23.5990   7.2280  13.7360   C.3       1 RES1   0.0000
@<TRIPOS>BOND
     1     1     6    1
     2     2     8    1
     3     3     9    1
     4     4    10    1
     5     5     7    1
     6     5    11    1
     7     6    11    1
     8     7     8    1
     9     7    16    1
    10     8     9    1
    11     9    10    1
    12    10    11    1
    13    12    18    1
    14    13    19    1
    15    14    20    1
    16    15    22    1
    17    16    23    1
    18    17    21    1
    19    17    23    1
    20    18    21    1
    21    19    23    1
    22    20    21    1
    23    20    22    1
    24    22    23    1
@<TRIPOS>SUBSTRUCTURE
     1 RES1        1 GROUP             0 ****  ****    0  
@<TRIPOS>MOLECULE
2HDR:A:4A3503
    11    11     1     0     0
SMALL
NO_CHARGES
****
Generated from the CSD

@<TRIPOS>ATOM
     1 O1      19.0180   3.7690   8.4560   O.co2     1 RES1   0.0000
     2 O2      18.4350   3.4310  10.5370   O.co2     1 RES1   0.0000
     3 O3      23.4960   6.0380   8.7080   O.3       1 RES1   0.0000
     4 N4      24.0420   6.2520  11.4580   N.pl3     1 RES1   0.0000
     5 C5      21.9780   5.2010  11.9450   C.2       1 RES1   0.0000
     6 C6      20.7930   4.6170  11.5080   C.2       1 RES1   0.0000
     7 C7      21.4430   4.9800   9.2200   C.2       1 RES1   0.0000
     8 C8      19.2430   3.8610   9.6830   C.2       1 RES1   0.0000
     9 C9      22.6260   5.5700   9.6500   C.2       1 RES1   0.0000
    10 C10     22.8980   5.6780  11.0140   C.2       1 RES1   0.0000
    11 C11     20.5220   4.4970  10.1490   C.2       1 RES1   0.0000
@<TRIPOS>BOND
     1     1     8    2
     2     2     8    1
     3     3     9    1
     4     4    10    1
     5     5     6    2
     6     5    10    1
     7     6    11    1
     8     7     9    1
     9     7    11    2
    10     8    11    1
    11     9    10    2
@<TRIPOS>SUBSTRUCTURE
     1 RES1        1 GROUP             0 ****  ****    0  
@<TRIPOS>MOLECULE
2R9X:A:WH6365
    30    33     1     0     0
SMALL
NO_CHARGES
****
Generated from the CSD

@<TRIPOS>ATOM
     1 O1      24.8210   4.4470  17.0640   O.co2     1 RES1   0.0000
     2 O2      23.5090   5.7450  18.3240   O.co2     1 RES1   0.0000
     3 O3      20.0560   4.1650   8.9140   O.co2     1 RES1   0.0000
     4 O4      18.9210   3.5120  10.6840   O.co2     1 RES1   0.0000
     5 O5      25.1110   6.1880  13.6620   O.2       1 RES1   0.0000
     6 O6      20.8270   6.7080  15.0170   O.2       1 RES1   0.0000
     7 N7      23.0940   6.6070  14.6580   N.am      1 RES1   0.0000
     8 C8      19.6350  11.3340  16.1580   C.2       1 RES1   0.0000
     9 C9      20.6260  10.7990  16.9790   C.2       1 RES1   0.0000
    10 C10     22.0020   9.7690  12.2600   C.2       1 RES1   0.0000
    11 C11     19.7260  11.2160  14.7730   C.2       1 RES1   0.0000
    12 C12     20.9090  10.4320  12.8230   C.2       1 RES1   0.0000
    13 C13     22.9990   9.2450  13.0720   C.2       1 RES1   0.0000
    14 C14     21.7100  10.1450  16.4130   C.2       1 RES1   0.0000
    15 C15     22.3180   4.4590  10.6750   C.2       1 RES1   0.0000
    16 C16     23.3530   4.9290  11.4760   C.2       1 RES1   0.0000
    17 C17     24.7420   6.7410  16.5780   C.3       1 RES1   0.0000
    18 C18     24.0280   8.7350  15.3000   C.3       1 RES1   0.0000
    19 C19     20.7010   5.2530  12.2850   C.2       1 RES1   0.0000
    20 C20     24.3240   5.5400  17.3990   C.2       1 RES1   0.0000
    21 C21     19.8980   4.0630  10.1540   C.2       1 RES1   0.0000
    22 C22     23.8760   6.1430  13.6720   C.2       1 RES1   0.0000
    23 C23     21.8030   6.3870  14.3300   C.2       1 RES1   0.0000
    24 C24     23.5570   7.3510  15.8470   C.3       1 RES1   0.0000
    25 C25     20.9990   4.6150  11.0760   C.2       1 RES1   0.0000
    26 C26     20.8190  10.5530  14.2070   C.2       1 RES1   0.0000
    27 C27     22.9180   9.3640  14.4650   C.2       1 RES1   0.0000
    28 C28     23.0720   5.5680  12.6800   C.2       1 RES1   0.0000
    29 C29     21.8190  10.0160  15.0280   C.2       1 RES1   0.0000
    30 C30     21.7420   5.7340  13.0900   C.2       1 RES1   0.0000
@<TRIPOS>BOND
     1     1    20    2
     2     2    20    1
     3     3    21    1
     4     4    21    2
     5     5    22    2
     6     6    23    2
     7     7    22   am
     8     7    23   am
     9     7    24    1
    10     8     9    2
    11     8    11    1
    12     9    14    1
    13    10    12    2
    14    10    13    1
    15    11    26    2
    16    12    26    1
    17    13    27    2
    18    14    29    2
    19    15    16    2
    20    15    25    1
    21    16    28    1
    22    17    20    1
    23    17    24    1
    24    18    24    1
    25    18    27    1
    26    19    25    2
    27    19    30    1
    28    21    25    1
    29    22    28    1
    30    23    30    1
    31    26    29    1
    32    27    29    1
    33    28    30    2
@<TRIPOS>SUBSTRUCTURE
     1 RES1        1 GROUP             0 ****  ****    0  
@<TRIPOS>MOLECULE
2PU2:A:DK2702
    26    28     1     0     0
SMALL
NO_CHARGES
****
Generated from the CSD

@<TRIPOS>ATOM
     1 O1      26.1380   6.1110  17.8410   O.co2     1 RES1   0.0000
     2 O2      24.9020   4.4290  17.1640   O.co2     1 RES1   0.0000
     3 O3      20.6640   4.7340   9.2280   O.co2     1 RES1   0.0000
     4 O4      19.2640   4.0080  10.7590   O.co2     1 RES1   0.0000
     5 O5      25.5810   5.8020  14.3780   O.2       1 RES1   0.0000
     6 O6      21.2260   6.2380  15.7550   O.2       1 RES1   0.0000
     7 O7      20.5950  11.4080  14.7290   O.3       1 RES1   0.0000
     8 N8      23.5480   6.1400  15.4620   N.am      1 RES1   0.0000
     9 C9      22.4590   9.9980  14.2600   C.2       1 RES1   0.0000
    10 C10     21.7190  10.3580  16.5520   C.2       1 RES1   0.0000
    11 C11     23.4750   9.1590  14.7190   C.2       1 RES1   0.0000
    12 C12     22.7370   9.5230  17.0080   C.2       1 RES1   0.0000
    13 C13     22.7650   4.7020  11.0600   C.2       1 RES1   0.0000
    14 C14     23.8060   4.9920  11.9380   C.2       1 RES1   0.0000
    15 C15     24.6940   8.0020  16.6010   C.3       1 RES1   0.0000
    16 C16     21.1060   5.2580  12.7400   C.2       1 RES1   0.0000
    17 C17     25.1040   5.6460  17.3090   C.2       1 RES1   0.0000
    18 C18     20.3760   4.4990  10.4310   C.2       1 RES1   0.0000
    19 C19     24.2850   5.7980  14.3880   C.2       1 RES1   0.0000
    20 C20     22.2640   6.0010  15.0300   C.2       1 RES1   0.0000
    21 C21     21.5900  10.5970  15.1770   C.2       1 RES1   0.0000
    22 C22     24.0780   6.6030  16.7850   C.3       1 RES1   0.0000
    23 C23     23.6140   8.9310  16.0920   C.2       1 RES1   0.0000
    24 C24     21.4280   4.8190  11.4530   C.2       1 RES1   0.0000
    25 C25     23.4770   5.4160  13.2080   C.2       1 RES1   0.0000
    26 C26     22.1550   5.5400  13.6100   C.2       1 RES1   0.0000
@<TRIPOS>BOND
     1     1    17    1
     2     2    17    2
     3     3    18    1
     4     4    18    2
     5     5    19    2
     6     6    20    2
     7     7    21    1
     8     8    19   am
     9     8    20   am
    10     8    22    1
    11     9    11    2
    12     9    21    1
    13    10    12    1
    14    10    21    2
    15    11    23    1
    16    12    23    2
    17    13    14    2
    18    13    24    1
    19    14    25    1
    20    15    22    1
    21    15    23    1
    22    16    24    2
    23    16    26    1
    24    17    22    1
    25    18    24    1
    26    19    25    1
    27    20    26    1
    28    25    26    2
@<TRIPOS>SUBSTRUCTURE
     1 RES1        1 GROUP             0 ****  ****    0  
@<TRIPOS>MOLECULE
2R9W:A:23C365
    29    32     1     0     0
SMALL
NO_CHARGES
****
Generated from the CSD

@<TRIPOS>ATOM
     1 O1      24.0320   5.6180  18.4490   O.co2     1 RES1   0.0000
     2 O2      24.8920   4.4300  16.7830   O.co2     1 RES1   0.0000
     3 O3      18.9520   3.8030  10.6420   O.co2     1 RES1   0.0000
     4 O4      20.2680   4.3120   8.9410   O.co2     1 RES1   0.0000
     5 O5      25.3530   5.5250  13.8950   O.2       1 RES1   0.0000
     6 O6      21.1070   6.1470  15.2710   O.2       1 RES1   0.0000
     7 N7      23.3450   5.9550  14.9190   N.am      1 RES1   0.0000
     8 C8      20.7450  11.1770  16.2810   C.2       1 RES1   0.0000
     9 C9      21.3230  10.3170  17.1990   C.2       1 RES1   0.0000
    10 C10     23.8530   9.6690  12.9620   C.2       1 RES1   0.0000
    11 C11     21.2390  11.2300  14.9830   C.2       1 RES1   0.0000
    12 C12     22.7910  10.4810  13.3230   C.2       1 RES1   0.0000
    13 C13     24.4240   8.8020  13.8750   C.2       1 RES1   0.0000
    14 C14     22.3830   9.5150  16.8400   C.2       1 RES1   0.0000
    15 C15     22.4670   4.3790  10.7080   C.2       1 RES1   0.0000
    16 C16     23.5180   4.6780  11.5550   C.2       1 RES1   0.0000
    17 C17     24.6740   7.7180  16.0990   C.3       1 RES1   0.0000
    18 C18     20.9070   5.0760  12.3990   C.2       1 RES1   0.0000
    19 C19     24.2860   5.4110  17.2360   C.2       1 RES1   0.0000
    20 C20     20.0280   4.2210  10.1640   C.2       1 RES1   0.0000
    21 C21     24.1150   5.5580  13.8930   C.2       1 RES1   0.0000
    22 C22     22.0630   5.8610  14.5500   C.2       1 RES1   0.0000
    23 C23     23.7460   6.4830  16.2460   C.3       1 RES1   0.0000
    24 C24     21.1550   4.5780  11.1210   C.2       1 RES1   0.0000
    25 C25     22.3080  10.4130  14.6200   C.2       1 RES1   0.0000
    26 C26     23.9690   8.7290  15.1780   C.2       1 RES1   0.0000
    27 C27     23.2890   5.1750  12.8320   C.2       1 RES1   0.0000
    28 C28     22.8900   9.5410  15.5440   C.2       1 RES1   0.0000
    29 C29     21.9770   5.3710  13.2470   C.2       1 RES1   0.0000
@<TRIPOS>BOND
     1     1    19    1
     2     2    19    2
     3     3    20    2
     4     4    20    1
     5     5    21    2
     6     6    22    2
     7     7    21   am
     8     7    22   am
     9     7    23    1
    10     8     9    2
    11     8    11    1
    12     9    14    1
    13    10    12    2
    14    10    13    1
    15    11    25    2
    16    12    25    1
    17    13    26    2
    18    14    28    2
    19    15    16    2
    20    15    24    1
    21    16    27    1
    22    17    23    1
    23    17    26    1
    24    18    24    2
    25    18    29    1
    26    19    23    1
    27    20    24    1
    28    21    27    1
    29    22    29    1
    30    25    28    1
    31    26    28    1
    32    27    29    2
@<TRIPOS>SUBSTRUCTURE
     1 RES1        1 GROUP             0 ****  ****    0  
@<TRIPOS>MOLECULE
6YPD:A:KL8401
    22    24     1     0     0
SMALL
NO_CHARGES
****
Generated from the CSD

@<TRIPOS>ATOM
     1 B1      26.0350   4.8740  16.1430   B         1 RES1   0.0000
     2 C2      25.2670   5.6810  15.0190   C.3       1 RES1   0.0000
     3 C3      24.3770   6.3240  12.2990   C.3       1 RES1   0.0000
     4 C4      23.3200   5.6290  11.4310   C.2       1 RES1   0.0000
     5 C5      22.6490   4.4920  11.8690   C.2       1 RES1   0.0000
     6 C6      21.6840   3.9070  11.0520   C.2       1 RES1   0.0000
     7 C7      21.3820   4.4660   9.7950   C.2       1 RES1   0.0000
     8 C8      22.0460   5.6100   9.3610   C.2       1 RES1   0.0000
     9 C9      23.0120   6.1990  10.1810   C.2       1 RES1   0.0000
    10 C10     25.4560   7.1800  15.1490   C.3       1 RES1   0.0000
    11 C11     24.9300   7.5110  16.5810   C.2       1 RES1   0.0000
    12 C12     25.3770   6.6630  17.5880   C.2       1 RES1   0.0000
    13 C13     24.9540   6.8470  18.9220   C.2       1 RES1   0.0000
    14 C14     25.5040   5.8920  20.0040   C.2       1 RES1   0.0000
    15 C15     24.0630   7.8740  19.2200   C.2       1 RES1   0.0000
    16 C16     23.5960   8.7160  18.1930   C.2       1 RES1   0.0000
    17 C17     24.0300   8.5260  16.8560   C.2       1 RES1   0.0000
    18 O18     25.1140   3.9270  16.4610   O.3       1 RES1   0.0000
    19 O19     26.7490   5.8210  20.1880   O.co2     1 RES1   0.0000
    20 O20     24.7260   5.2280  20.6810   O.co2     1 RES1   0.0000
    21 O21     26.3130   5.6080  17.2660   O.3       1 RES1   0.0000
    22 S22     25.5020   5.2140  13.2770   S.3       1 RES1   0.0000
@<TRIPOS>BOND
     1     1     2    1
     2     1    18    1
     3     1    21    1
     4     2    10    1
     5     2    22    1
     6     3     4    1
     7     3    22    1
     8     4     5    2
     9     4     9    1
    10     5     6    1
    11     6     7    2
    12     7     8    1
    13     8     9    2
    14    10    11    1
    15    11    12    2
    16    11    17    1
    17    12    13    1
    18    12    21    1
    19    13    14    1
    20    13    15    2
    21    14    19    1
    22    14    20    2
    23    15    16    1
    24    16    17    2
@<TRIPOS>SUBSTRUCTURE
     1 RES1        1 GROUP             0 ****  ****    0  
@<TRIPOS>MOLECULE
1LL5:A:IM2370
    20    20     1     0     0
SMALL
NO_CHARGES
****
Generated from the CSD

@<TRIPOS>ATOM
     1 C1      26.0840   5.1890  15.9580   C.2       1 RES1   0.0000
     2 C2      22.1020   6.9650  17.9830   C.2       1 RES1   0.0000
     3 C3      24.7180   5.7840  15.6960   C.3       1 RES1   0.0000
     4 C4      24.2550   6.6260  16.9330   C.3       1 RES1   0.0000
     5 C5      22.9260   6.2180  18.7920   C.2       1 RES1   0.0000
     6 O6      27.1150   5.6300  15.5420   O.2       1 RES1   0.0000
     7 C7      24.7070   6.6010  14.3490   C.3       1 RES1   0.0000
     8 O8      25.2780   5.8570  13.2890   O.3       1 RES1   0.0000
     9 C9      25.3900   7.9890  14.4240   C.3       1 RES1   0.0000
    10 N10     24.1100   5.8580  18.1160   N.2       1 RES1   0.0000
    11 C11     22.7230   5.7390  20.2610   C.2       1 RES1   0.0000
    12 O12     23.3950   4.6700  20.5990   O.co2     1 RES1   0.0000
    13 O13     21.9970   6.3110  21.0330   O.co2     1 RES1   0.0000
    14 S14     20.5060   7.6120  18.3960   S.3       1 RES1   0.0000
    15 C15     20.4650   9.1950  17.4840   C.3       1 RES1   0.0000
    16 C16     19.0630   9.7860  17.3200   C.3       1 RES1   0.0000
    17 N17     18.0410   8.7860  16.9850   N.2       1 RES1   0.0000
    18 C18     16.8260   8.8160  17.4960   C.2       1 RES1   0.0000
    19 N19     15.8730   7.9760  17.2580   N.pl3     1 RES1   0.0000
    20 C20     22.7690   7.1640  16.6340   C.3       1 RES1   0.0000
@<TRIPOS>BOND
     1     1     3    1
     2     1     6    2
     3     2     5    2
     4     2    14    1
     5     2    20    1
     6     3     4    1
     7     3     7    1
     8     4    10    1
     9     4    20    1
    10     5    10    1
    11     5    11    1
    12     7     8    1
    13     7     9    1
    14    11    12    1
    15    11    13    2
    16    14    15    1
    17    15    16    1
    18    16    17    1
    19    17    18    1
    20    18    19    2
@<TRIPOS>SUBSTRUCTURE
     1 RES1        1 GROUP             0 ****  ****    0  
@<TRIPOS>MOLECULE
1FCM:A:CXU961
    29    31     1     0     0
SMALL
NO_CHARGES
****
Generated from the CSD

@<TRIPOS>ATOM
     1 Cl1     22.4290   9.4530  13.6000   Cl        1 RES1   0.0000
     2 C2      26.1110   4.9370  15.7950   C.2       1 RES1   0.0000
     3 O3      25.2150   4.2300  16.2410   O.2       1 RES1   0.0000
     4 C4      25.8220   6.3200  15.1640   C.3       1 RES1   0.0000
     5 N5      24.4360   6.4270  14.6000   N.am      1 RES1   0.0000
     6 C6      26.2230   7.3820  16.2530   C.3       1 RES1   0.0000
     7 S7      25.0570   8.7790  16.5360   S.3       1 RES1   0.0000
     8 C8      24.9420   8.5020  18.3470   C.3       1 RES1   0.0000
     9 C9      25.2850   6.9690  18.4120   C.3       1 RES1   0.0000
    10 N10     26.4420   6.7810  17.5710   N.2       1 RES1   0.0000
    11 C11     25.4850   6.3180  19.7870   C.2       1 RES1   0.0000
    12 C12     24.1920   6.1490  13.4760   C.2       1 RES1   0.0000
    13 O13     25.0980   5.9700  12.6220   O.2       1 RES1   0.0000
    14 C14     22.7720   6.0070  13.0310   C.2       1 RES1   0.0000
    15 C15     22.1950   5.3810  11.9820   C.2       1 RES1   0.0000
    16 O16     20.8970   5.4360  11.8640   O.3       1 RES1   0.0000
    17 N17     20.4550   6.1950  12.9720   N.2       1 RES1   0.0000
    18 C18     21.5120   6.5340  13.6620   C.2       1 RES1   0.0000
    19 C19     23.0250   4.6400  10.9580   C.3       1 RES1   0.0000
    20 C20     21.1470   7.3740  14.8860   C.2       1 RES1   0.0000
    21 C21     21.5330   8.7420  14.9480   C.2       1 RES1   0.0000
    22 C22     21.2150   9.5520  16.0690   C.2       1 RES1   0.0000
    23 C23     20.5000   8.9860  17.1710   C.2       1 RES1   0.0000
    24 C24     20.1070   7.5990  17.1280   C.2       1 RES1   0.0000
    25 C25     20.4320   6.7920  15.9820   C.2       1 RES1   0.0000
    26 C26     23.4910   8.8560  18.8090   C.3       1 RES1   0.0000
    27 C27     25.9340   9.4510  19.0810   C.3       1 RES1   0.0000
    28 O28     26.5690   6.5680  20.4600   O.co2     1 RES1   0.0000
    29 O29     24.5730   5.5040  20.2160   O.co2     1 RES1   0.0000
@<TRIPOS>BOND
     1     1    21    1
     2     2     3    2
     3     2     4    1
     4     4     5    1
     5     4     6    1
     6     5    12   am
     7     6     7    1
     8     6    10    1
     9     7     8    1
    10     8     9    1
    11     8    26    1
    12     8    27    1
    13     9    10    1
    14     9    11    1
    15    11    28    1
    16    11    29    2
    17    12    13    2
    18    12    14    1
    19    14    15    2
    20    14    18    1
    21    15    16    1
    22    15    19    1
    23    16    17    1
    24    17    18    2
    25    18    20    1
    26    20    21    2
    27    20    25    1
    28    21    22    1
    29    22    23    2
    30    23    24    1
    31    24    25    2
@<TRIPOS>SUBSTRUCTURE
     1 RES1        1 GROUP             0 ****  ****    0  
@<TRIPOS>MOLECULE
3GVB:A:3GV1
    16    17     1     0     0
SMALL
NO_CHARGES
****
Generated from the CSD

@<TRIPOS>ATOM
     1 O1      26.1540   5.0880  19.4130   O.co2     1 RES1   0.0000
     2 O2      24.2150   4.8630  20.4130   O.co2     1 RES1   0.0000
     3 O3      26.5050   7.0280  15.9340   O.2       1 RES1   0.0000
     4 O4      24.4840   3.3390  15.9550   O.3       1 RES1   0.0000
     5 N5      24.4860   6.1100  16.4530   N.am      1 RES1   0.0000
     6 C6      23.5740   5.8970  17.5660   C.3       1 RES1   0.0000
     7 C7      23.6620   4.5870  12.6220   C.2       1 RES1   0.0000
     8 C8      23.6570   5.9620  12.8460   C.2       1 RES1   0.0000
     9 C9      23.9390   3.7150  13.6730   C.2       1 RES1   0.0000
    10 C10     23.9300   6.4610  14.1200   C.2       1 RES1   0.0000
    11 C11     25.4980   7.3460  18.1040   C.3       1 RES1   0.0000
    12 C12     24.9550   5.4150  19.5700   C.2       1 RES1   0.0000
    13 C13     25.5740   6.8220  16.6960   C.2       1 RES1   0.0000
    14 C14     24.2160   4.2140  14.9460   C.2       1 RES1   0.0000
    15 C15     24.2110   5.5890  15.1750   C.2       1 RES1   0.0000
    16 C16     24.3750   6.5100  18.7190   C.3       1 RES1   0.0000
@<TRIPOS>BOND
     1     1    12    1
     2     2    12    2
     3     3    13    2
     4     4    14    1
     5     5     6    1
     6     5    13   am
     7     5    15    1
     8     6    16    1
     9     7     8    2
    10     7     9    1
    11     8    10    1
    12     9    14    2
    13    10    15    2
    14    11    13    1
    15    11    16    1
    16    12    16    1
    17    14    15    1
@<TRIPOS>SUBSTRUCTURE
     1 RES1        1 GROUP             0 ****  ****    0  
