@<TRIPOS>MOLECULE
5NFT:A:8W8804
    35    38     1     0     0
SMALL
NO_CHARGES
****
Generated from the CSD

@<TRIPOS>ATOM
     1 F1      37.4140  37.4270   3.4550   F         1 RES1   0.0000
     2 F2      42.9390  26.4570  13.5070   F         1 RES1   0.0000
     3 F3      42.2630  24.4380  13.2750   F         1 RES1   0.0000
     4 F4      40.9170  25.8850  14.1940   F         1 RES1   0.0000
     5 O5      42.0070  25.6910  10.8540   O.2       1 RES1   0.0000
     6 O6      42.9330  30.4870  13.6820   O.3       1 RES1   0.0000
     7 O7      39.4400  29.0770   9.0640   O.3       1 RES1   0.0000
     8 N8      36.9790  34.4620   8.8830   N.2       1 RES1   0.0000
     9 N9      40.1560  26.7380  11.7890   N.am      1 RES1   0.0000
    10 N10     37.6020  34.0520   7.7630   N.pl3     1 RES1   0.0000
    11 C11     44.2770  30.9230  13.8910   C.3       1 RES1   0.0000
    12 C12     38.2670  26.7360  10.2490   C.3       1 RES1   0.0000
    13 C13     37.1510  33.4600   9.7470   C.2       1 RES1   0.0000
    14 C14     43.3350  29.9190  10.0570   C.2       1 RES1   0.0000
    15 C15     37.1760  35.2710   4.3310   C.2       1 RES1   0.0000
    16 C16     37.8090  37.1160   5.7520   C.2       1 RES1   0.0000
    17 C17     43.6480  30.2830  11.3540   C.2       1 RES1   0.0000
    18 C18     39.2740  30.7960   7.4760   C.2       1 RES1   0.0000
    19 C19     37.2300  34.4040   5.4000   C.2       1 RES1   0.0000
    20 C20     37.8620  36.2400   6.8230   C.2       1 RES1   0.0000
    21 C21     42.0760  29.4290   9.7610   C.2       1 RES1   0.0000
    22 C22     38.8680  32.0210   6.9850   C.2       1 RES1   0.0000
    23 C23     41.4270  29.6750  12.0480   C.2       1 RES1   0.0000
    24 C24     38.2760  31.1470   9.6460   C.2       1 RES1   0.0000
    25 C25     41.3470  26.0370  11.8240   C.2       1 RES1   0.0000
    26 C26     37.4700  36.6090   4.5150   C.2       1 RES1   0.0000
    27 C27     42.6940  30.1500  12.3490   C.2       1 RES1   0.0000
    28 C28     38.9960  30.3680   8.7610   C.2       1 RES1   0.0000
    29 C29     39.6620  27.2670  10.5240   C.3       1 RES1   0.0000
    30 C30     39.7300  28.7890  10.4300   C.3       1 RES1   0.0000
    31 C31     37.5780  34.8990   6.6410   C.2       1 RES1   0.0000
    32 C32     38.1600  32.7980   7.8820   C.2       1 RES1   0.0000
    33 C33     37.8770  32.3890   9.1780   C.2       1 RES1   0.0000
    34 C34     41.1100  29.3050  10.7510   C.2       1 RES1   0.0000
    35 C35     41.8400  25.7180  13.2020   C.3       1 RES1   0.0000
@<TRIPOS>BOND
     1     1    26    1
     2     2    35    1
     3     3    35    1
     4     4    35    1
     5     5    25    2
     6     6    11    1
     7     6    27    1
     8     7    28    1
     9     7    30    1
    10     8    10    1
    11     8    13    2
    12     9    25   am
    13     9    29    1
    14    10    31    1
    15    10    32    1
    16    12    29    1
    17    13    33    1
    18    14    17    2
    19    14    21    1
    20    15    19    2
    21    15    26    1
    22    16    20    1
    23    16    26    2
    24    17    27    1
    25    18    22    1
    26    18    28    2
    27    19    31    1
    28    20    31    2
    29    21    34    2
    30    22    32    2
    31    23    27    2
    32    23    34    1
    33    24    28    1
    34    24    33    2
    35    25    35    1
    36    29    30    1
    37    30    34    1
    38    32    33    1
@<TRIPOS>SUBSTRUCTURE
     1 RES1        1 GROUP             0 ****  ****    0  
@<TRIPOS>MOLECULE
1P93:A:DEX1999
    28    31     1     0     0
SMALL
NO_CHARGES
****
Generated from the CSD

@<TRIPOS>ATOM
     1 F1      40.4030  30.7590   9.5980   F         1 RES1   0.0000
     2 O2      41.7140  25.4080  14.8990   O.3       1 RES1   0.0000
     3 O3      38.1140  34.6370   6.7100   O.2       1 RES1   0.0000
     4 O4      42.8040  24.7930  12.5610   O.2       1 RES1   0.0000
     5 O5      37.7470  28.7050  10.9810   O.3       1 RES1   0.0000
     6 O6      42.9410  27.8000  12.0270   O.3       1 RES1   0.0000
     7 C7      44.2740  26.9920   9.8460   C.3       1 RES1   0.0000
     8 C8      37.0700  29.6420   8.2340   C.3       1 RES1   0.0000
     9 C9      39.6400  26.1950  10.9370   C.3       1 RES1   0.0000
    10 C10     41.5470  26.3640  13.9350   C.3       1 RES1   0.0000
    11 C11     37.5630  33.2220   8.6740   C.2       1 RES1   0.0000
    12 C12     39.5780  29.7700   6.2520   C.3       1 RES1   0.0000
    13 C13     40.6230  29.0500   7.1600   C.3       1 RES1   0.0000
    14 C14     37.6480  31.9140   9.2130   C.2       1 RES1   0.0000
    15 C15     38.7910  32.2950   6.5530   C.2       1 RES1   0.0000
    16 C16     41.9300  26.6070   8.9410   C.3       1 RES1   0.0000
    17 C17     39.9940  28.6410  11.6840   C.3       1 RES1   0.0000
    18 C18     38.1390  33.4920   7.2920   C.2       1 RES1   0.0000
    19 C19     42.2060  25.9110  12.6540   C.2       1 RES1   0.0000
    20 C20     38.8980  29.4160  10.8960   C.3       1 RES1   0.0000
    21 C21     42.8770  26.3060  10.0840   C.3       1 RES1   0.0000
    22 C22     38.8790  31.0070   7.0750   C.2       1 RES1   0.0000
    23 C23     40.0500  28.5970   8.6110   C.3       1 RES1   0.0000
    24 C24     41.1870  27.8930   9.5090   C.3       1 RES1   0.0000
    25 C25     39.4250  29.8320   9.4280   C.3       1 RES1   0.0000
    26 C26     42.1530  26.8410  11.3980   C.3       1 RES1   0.0000
    27 C27     38.3030  30.6190   8.5250   C.3       1 RES1   0.0000
    28 C28     40.7330  27.4140  10.9410   C.3       1 RES1   0.0000
@<TRIPOS>BOND
     1     1    25    1
     2     2    10    1
     3     3    18    2
     4     4    19    2
     5     5    20    1
     6     6    26    1
     7     7    21    1
     8     8    27    1
     9     9    28    1
    10    10    19    1
    11    11    14    2
    12    11    18    1
    13    12    13    1
    14    12    22    1
    15    13    23    1
    16    14    27    1
    17    15    18    1
    18    15    22    2
    19    16    21    1
    20    16    24    1
    21    17    20    1
    22    17    28    1
    23    19    26    1
    24    20    25    1
    25    21    26    1
    26    22    27    1
    27    23    24    1
    28    23    25    1
    29    24    28    1
    30    25    27    1
    31    26    28    1
@<TRIPOS>SUBSTRUCTURE
     1 RES1        1 GROUP             0 ****  ****    0  
@<TRIPOS>MOLECULE
4CSJ:A:NN71778
    33    36     1     0     0
SMALL
NO_CHARGES
****
Generated from the CSD

@<TRIPOS>ATOM
     1 S1      41.1470  26.2570  11.2610   S.o2      1 RES1   0.0000
     2 F2      37.6380  37.6660   3.4970   F         1 RES1   0.0000
     3 O3      41.3730  25.4130  12.4050   O.2       1 RES1   0.0000
     4 O4      41.1780  25.7210   9.9400   O.2       1 RES1   0.0000
     5 N5      39.5950  26.8160  11.4130   N.2       1 RES1   0.0000
     6 N6      37.0170  33.8890   8.6240   N.2       1 RES1   0.0000
     7 N7      38.4410  30.2420  10.3140   N.2       1 RES1   0.0000
     8 N8      37.7570  33.8050   7.4420   N.pl3     1 RES1   0.0000
     9 C9      37.5730  27.3950  10.2190   C.3       1 RES1   0.0000
    10 C10     44.9440  31.0490  11.6380   C.3       1 RES1   0.0000
    11 C11     41.6130  28.1230  13.7940   C.3       1 RES1   0.0000
    12 C12     43.0450  27.3460   8.9140   C.3       1 RES1   0.0000
    13 C13     39.2160  29.2060  11.0210   C.3       1 RES1   0.0000
    14 C14     37.2650  32.8690   9.3930   C.2       1 RES1   0.0000
    15 C15     39.9940  30.8560   6.9540   C.2       1 RES1   0.0000
    16 C16     37.3420  35.4040   4.1340   C.2       1 RES1   0.0000
    17 C17     37.9790  37.0930   5.7690   C.2       1 RES1   0.0000
    18 C18     39.7160  30.2640   8.1840   C.2       1 RES1   0.0000
    19 C19     39.4110  32.0520   6.5990   C.2       1 RES1   0.0000
    20 C20     37.3540  34.4140   5.1070   C.2       1 RES1   0.0000
    21 C21     38.0380  36.0920   6.7350   C.2       1 RES1   0.0000
    22 C22     43.2460  29.4970  12.6200   C.2       1 RES1   0.0000
    23 C23     43.9430  29.1100  10.3720   C.2       1 RES1   0.0000
    24 C24     42.2930  27.6340  11.3610   C.2       1 RES1   0.0000
    25 C25     37.6380  36.7320   4.4670   C.2       1 RES1   0.0000
    26 C26     39.0400  27.7800  10.4550   C.3       1 RES1   0.0000
    27 C27     38.8050  30.8260   9.0840   C.2       1 RES1   0.0000
    28 C28     37.7360  34.7630   6.4130   C.2       1 RES1   0.0000
    29 C29     38.5000  32.6520   7.4850   C.2       1 RES1   0.0000
    30 C30     44.0080  29.8690  11.5300   C.2       1 RES1   0.0000
    31 C31     42.3960  28.4020  12.5410   C.2       1 RES1   0.0000
    32 C32     43.1000  28.0080  10.2730   C.2       1 RES1   0.0000
    33 C33     38.1940  32.0430   8.7280   C.2       1 RES1   0.0000
@<TRIPOS>BOND
     1     1     3    2
     2     1     4    2
     3     1     5    1
     4     1    24    1
     5     2    25    1
     6     5    26    1
     7     6     8    1
     8     6    14    2
     9     7    13    1
    10     7    27    1
    11     8    28    1
    12     8    29    1
    13     9    26    1
    14    10    30    1
    15    11    31    1
    16    12    32    1
    17    13    26    1
    18    14    33    1
    19    15    18    2
    20    15    19    1
    21    16    20    2
    22    16    25    1
    23    17    21    1
    24    17    25    2
    25    18    27    1
    26    19    29    2
    27    20    28    1
    28    21    28    2
    29    22    30    2
    30    22    31    1
    31    23    30    1
    32    23    32    2
    33    24    31    2
    34    24    32    1
    35    27    33    2
    36    29    33    1
@<TRIPOS>SUBSTRUCTURE
     1 RES1        1 GROUP             0 ****  ****    0  
@<TRIPOS>MOLECULE
5NFP:A:8W5804
    31    35     1     0     0
SMALL
NO_CHARGES
****
Generated from the CSD

@<TRIPOS>ATOM
     1 O1      40.8640  25.3020  14.8290   O.3       1 RES1   0.0000
     2 O2      38.1850  34.4730   7.3350   O.2       1 RES1   0.0000
     3 O3      37.8940  28.5900  10.7530   O.3       1 RES1   0.0000
     4 O4      42.1220  24.8720  12.5570   O.2       1 RES1   0.0000
     5 O5      44.3410  27.6740  10.8280   O.3       1 RES1   0.0000
     6 O6      42.8040  28.2760  12.4380   O.3       1 RES1   0.0000
     7 C7      45.2270  31.9500  12.9630   C.3       1 RES1   0.0000
     8 C8      37.4690  29.4970   8.0190   C.3       1 RES1   0.0000
     9 C9      39.9850  26.3760  10.6900   C.3       1 RES1   0.0000
    10 C10     41.4080  26.4300  14.1580   C.3       1 RES1   0.0000
    11 C11     44.7430  30.5270  13.2660   C.3       1 RES1   0.0000
    12 C12     44.6780  29.7680  11.9430   C.3       1 RES1   0.0000
    13 C13     37.5610  32.8230   8.8760   C.2       1 RES1   0.0000
    14 C14     40.1620  30.1200   6.5170   C.3       1 RES1   0.0000
    15 C15     41.1540  29.4270   7.4910   C.3       1 RES1   0.0000
    16 C16     37.6900  31.5580   9.2520   C.2       1 RES1   0.0000
    17 C17     39.1350  32.3400   6.9310   C.2       1 RES1   0.0000
    18 C18     42.5670  27.2150   9.2630   C.3       1 RES1   0.0000
    19 C19     40.1150  28.7080  11.7270   C.3       1 RES1   0.0000
    20 C20     44.2160  28.3150  12.1170   C.3       1 RES1   0.0000
    21 C21     38.2870  33.2990   7.6830   C.2       1 RES1   0.0000
    22 C22     39.0590  29.4320  10.8530   C.3       1 RES1   0.0000
    23 C23     41.9310  26.0470  12.7950   C.2       1 RES1   0.0000
    24 C24     43.2110  26.8100  10.6270   C.3       1 RES1   0.0000
    25 C25     39.2470  31.0680   7.3210   C.2       1 RES1   0.0000
    26 C26     40.4570  28.8010   8.7250   C.3       1 RES1   0.0000
    27 C27     41.5150  28.2650   9.7090   C.3       1 RES1   0.0000
    28 C28     39.6140  29.9050   9.4640   C.3       1 RES1   0.0000
    29 C29     38.5120  30.5220   8.5370   C.3       1 RES1   0.0000
    30 C30     42.1880  27.1530  11.7640   C.3       1 RES1   0.0000
    31 C31     40.9020  27.6060  11.0030   C.3       1 RES1   0.0000
@<TRIPOS>BOND
     1     1    10    1
     2     2    21    2
     3     3    22    1
     4     4    23    2
     5     5    20    1
     6     5    24    1
     7     6    20    1
     8     6    30    1
     9     7    11    1
    10     8    29    1
    11     9    31    1
    12    10    23    1
    13    11    12    1
    14    12    20    1
    15    13    16    2
    16    13    21    1
    17    14    15    1
    18    14    25    1
    19    15    26    1
    20    16    29    1
    21    17    21    1
    22    17    25    2
    23    18    24    1
    24    18    27    1
    25    19    22    1
    26    19    31    1
    27    22    28    1
    28    23    30    1
    29    24    30    1
    30    25    29    1
    31    26    27    1
    32    26    28    1
    33    27    31    1
    34    28    29    1
    35    30    31    1
@<TRIPOS>SUBSTRUCTURE
     1 RES1        1 GROUP             0 ****  ****    0  
@<TRIPOS>MOLECULE
3E7C:A:8661
    37    39     1     0     0
SMALL
NO_CHARGES
****
Generated from the CSD

@<TRIPOS>ATOM
     1 Cl1     42.9900  30.2140  12.3370   Cl        1 RES1   0.0000
     2 Cl2     43.5610  24.8760  12.5480   Cl        1 RES1   0.0000
     3 F3      37.1100  37.6030   3.5270   F         1 RES1   0.0000
     4 F4      36.8430  28.6320  10.2420   F         1 RES1   0.0000
     5 F5      38.2480  27.3270   9.2510   F         1 RES1   0.0000
     6 F6      37.3110  26.6690  11.0850   F         1 RES1   0.0000
     7 O7      40.2400  30.4730   7.9500   O.2       1 RES1   0.0000
     8 O8      42.2250  27.0340  10.6000   O.2       1 RES1   0.0000
     9 O9      38.3690  29.1070  12.2910   O.3       1 RES1   0.0000
    10 N10     39.4670  32.5940   6.1310   N.pl3     1 RES1   0.0000
    11 N11     37.1500  33.7830   8.4770   N.2       1 RES1   0.0000
    12 N12     39.0020  30.3160   9.8760   N.am      1 RES1   0.0000
    13 N13     37.8290  33.7810   7.3230   N.pl3     1 RES1   0.0000
    14 N14     40.9920  27.6620  12.4450   N.am      1 RES1   0.0000
    15 C15     41.1820  26.1770  14.3140   C.3       1 RES1   0.0000
    16 C16     41.0410  27.6100  13.8750   C.3       1 RES1   0.0000
    17 C17     37.6320  32.7270   9.1360   C.2       1 RES1   0.0000
    18 C18     39.7900  29.2390  10.3980   C.3       1 RES1   0.0000
    19 C19     45.7250  27.8620  13.9060   C.2       1 RES1   0.0000
    20 C20     39.7570  27.2210  11.8590   C.3       1 RES1   0.0000
    21 C21     45.0150  28.9660  13.5100   C.2       1 RES1   0.0000
    22 C22     45.2650  26.6060  13.6010   C.2       1 RES1   0.0000
    23 C23     37.9740  36.9790   5.6160   C.2       1 RES1   0.0000
    24 C24     36.7910  35.4130   4.2630   C.2       1 RES1   0.0000
    25 C25     38.1590  36.0170   6.5760   C.2       1 RES1   0.0000
    26 C26     36.9720  34.4460   5.2190   C.2       1 RES1   0.0000
    27 C27     43.8460  28.8150  12.8120   C.2       1 RES1   0.0000
    28 C28     44.0970  26.4580  12.9030   C.2       1 RES1   0.0000
    29 C29     37.2930  36.6710   4.4660   C.2       1 RES1   0.0000
    30 C30     39.3700  30.8850   8.6950   C.2       1 RES1   0.0000
    31 C31     42.1470  27.3930  11.7600   C.2       1 RES1   0.0000
    32 C32     38.7140  32.7550   7.2250   C.2       1 RES1   0.0000
    33 C33     37.6520  34.7620   6.3650   C.2       1 RES1   0.0000
    34 C34     38.6180  32.0470   8.3900   C.2       1 RES1   0.0000
    35 C35     43.3850  27.5600  12.5130   C.2       1 RES1   0.0000
    36 C36     37.8260  27.7420  10.4550   C.3       1 RES1   0.0000
    37 C37     38.9440  28.3370  11.2580   C.3       1 RES1   0.0000
@<TRIPOS>BOND
     1     1    27    1
     2     2    28    1
     3     3    29    1
     4     4    36    1
     5     5    36    1
     6     6    36    1
     7     7    30    2
     8     8    31    2
     9     9    37    1
    10    10    32    1
    11    11    13    1
    12    11    17    2
    13    12    18    1
    14    12    30   am
    15    13    32    1
    16    13    33    1
    17    14    16    1
    18    14    20    1
    19    14    31   am
    20    15    16    1
    21    17    34    1
    22    18    37    1
    23    19    21    2
    24    19    22    1
    25    20    37    1
    26    21    27    1
    27    22    28    2
    28    23    25    2
    29    23    29    1
    30    24    26    1
    31    24    29    2
    32    25    33    1
    33    26    33    2
    34    27    35    2
    35    28    35    1
    36    30    34    1
    37    31    35    1
    38    32    34    2
    39    36    37    1
@<TRIPOS>SUBSTRUCTURE
     1 RES1        1 GROUP             0 ****  ****    0  
@<TRIPOS>MOLECULE
4P6X:A:HCY900
    26    29     1     0     0
SMALL
NO_CHARGES
****
Generated from the CSD

@<TRIPOS>ATOM
     1 O1      41.5000  25.1210  14.4610   O.3       1 RES1   0.0000
     2 O2      38.5820  34.4960   7.0090   O.2       1 RES1   0.0000
     3 O3      37.9790  28.3880  10.3680   O.3       1 RES1   0.0000
     4 O4      42.5760  24.7430  12.1150   O.2       1 RES1   0.0000
     5 O5      43.1580  28.0470  11.8540   O.3       1 RES1   0.0000
     6 C6      37.7180  29.6160   7.6830   C.3       1 RES1   0.0000
     7 C7      40.2020  26.3350  10.2300   C.3       1 RES1   0.0000
     8 C8      41.6420  26.2780  13.6470   C.3       1 RES1   0.0000
     9 C9      41.3840  29.3910   7.3060   C.3       1 RES1   0.0000
    10 C10     37.6090  32.8860   8.4630   C.3       1 RES1   0.0000
    11 C11     40.5100  30.2160   6.3890   C.3       1 RES1   0.0000
    12 C12     42.6230  27.2350   8.8840   C.3       1 RES1   0.0000
    13 C13     39.5080  32.3910   6.7690   C.2       1 RES1   0.0000
    14 C14     38.1130  31.6270   9.1640   C.3       1 RES1   0.0000
    15 C15     43.1400  26.4720  10.0960   C.3       1 RES1   0.0000
    16 C16     40.1840  28.5330  11.4050   C.3       1 RES1   0.0000
    17 C17     38.5680  33.3350   7.3810   C.2       1 RES1   0.0000
    18 C18     39.1250  29.2480  10.5480   C.3       1 RES1   0.0000
    19 C19     42.2330  25.9020  12.3290   C.2       1 RES1   0.0000
    20 C20     40.6150  28.7890   8.4760   C.3       1 RES1   0.0000
    21 C21     39.5930  31.1160   7.1680   C.2       1 RES1   0.0000
    22 C22     41.6500  28.2400   9.4360   C.3       1 RES1   0.0000
    23 C23     39.7480  29.8010   9.2340   C.3       1 RES1   0.0000
    24 C24     38.7580  30.5510   8.3120   C.3       1 RES1   0.0000
    25 C25     42.3660  26.9880  11.2790   C.3       1 RES1   0.0000
    26 C26     41.0590  27.5320  10.6480   C.3       1 RES1   0.0000
@<TRIPOS>BOND
     1     1     8    1
     2     2    17    2
     3     3    18    1
     4     4    19    2
     5     5    25    1
     6     6    24    1
     7     7    26    1
     8     8    19    1
     9     9    11    1
    10     9    20    1
    11    10    14    1
    12    10    17    1
    13    11    21    1
    14    12    15    1
    15    12    22    1
    16    13    17    1
    17    13    21    2
    18    14    24    1
    19    15    25    1
    20    16    18    1
    21    16    26    1
    22    18    23    1
    23    19    25    1
    24    20    22    1
    25    20    23    1
    26    21    24    1
    27    22    26    1
    28    23    24    1
    29    25    26    1
@<TRIPOS>SUBSTRUCTURE
     1 RES1        1 GROUP             0 ****  ****    0  
@<TRIPOS>MOLECULE
4P6W:A:MOF801
    35    39     1     0     0
SMALL
NO_CHARGES
****
Generated from the CSD

@<TRIPOS>ATOM
     1 Cl1     40.2960  25.7340  14.7630   Cl        1 RES1   0.0000
     2 Cl2     40.5580  31.1680   9.9390   Cl        1 RES1   0.0000
     3 O3      44.6740  27.8850  13.4050   O.2       1 RES1   0.0000
     4 O4      38.1630  34.3790   7.6100   O.2       1 RES1   0.0000
     5 O5      42.2570  25.0160  12.5130   O.2       1 RES1   0.0000
     6 O6      37.8550  28.4530  10.8910   O.3       1 RES1   0.0000
     7 O7      45.7230  30.1910  13.5690   O.3       1 RES1   0.0000
     8 O8      42.9130  28.4620  11.8700   O.3       1 RES1   0.0000
     9 C9      44.4910  26.6770  10.0210   C.3       1 RES1   0.0000
    10 C10     37.2830  29.3990   8.0120   C.3       1 RES1   0.0000
    11 C11     40.0730  26.3070  10.6860   C.3       1 RES1   0.0000
    12 C12     41.6690  26.7540  14.0510   C.3       1 RES1   0.0000
    13 C13     46.0690  31.5110  13.4920   C.2       1 RES1   0.0000
    14 C14     45.1750  32.1620  12.6700   C.2       1 RES1   0.0000
    15 C15     44.2550  31.2580  12.1940   C.2       1 RES1   0.0000
    16 C16     37.5070  32.7020   9.0270   C.2       1 RES1   0.0000
    17 C17     39.9090  30.1000   6.5610   C.3       1 RES1   0.0000
    18 C18     40.9080  29.3880   7.4650   C.3       1 RES1   0.0000
    19 C19     38.9500  32.3190   7.1280   C.2       1 RES1   0.0000
    20 C20     42.3530  27.2050   8.9850   C.3       1 RES1   0.0000
    21 C21     37.5750  31.3620   9.3850   C.2       1 RES1   0.0000
    22 C22     40.1390  28.6610  11.6710   C.3       1 RES1   0.0000
    23 C23     44.0890  28.7250  12.7220   C.2       1 RES1   0.0000
    24 C24     38.1580  33.1610   7.8830   C.2       1 RES1   0.0000
    25 C25     42.0790  26.3170  12.6580   C.2       1 RES1   0.0000
    26 C26     38.9950  29.3200  10.8970   C.3       1 RES1   0.0000
    27 C27     44.6300  30.0820  12.7760   C.2       1 RES1   0.0000
    28 C28     42.9830  26.5820  10.2260   C.3       1 RES1   0.0000
    29 C29     39.0200  30.9730   7.4200   C.2       1 RES1   0.0000
    30 C30     40.2670  28.7710   8.7050   C.3       1 RES1   0.0000
    31 C31     41.3840  28.2160   9.5790   C.3       1 RES1   0.0000
    32 C32     39.4410  29.8050   9.5040   C.3       1 RES1   0.0000
    33 C33     42.2780  27.2260  11.4590   C.3       1 RES1   0.0000
    34 C34     38.3150  30.3730   8.6070   C.3       1 RES1   0.0000
    35 C35     40.9050  27.5930  10.8790   C.3       1 RES1   0.0000
@<TRIPOS>BOND
     1     1    12    1
     2     2    32    1
     3     3    23    2
     4     4    24    2
     5     5    25    2
     6     6    26    1
     7     7    13    1
     8     7    27    1
     9     8    23    1
    10     8    33    1
    11     9    28    1
    12    10    34    1
    13    11    35    1
    14    12    25    1
    15    13    14    2
    16    14    15    1
    17    15    27    2
    18    16    21    2
    19    16    24    1
    20    17    18    1
    21    17    29    1
    22    18    30    1
    23    19    24    1
    24    19    29    2
    25    20    28    1
    26    20    31    1
    27    21    34    1
    28    22    26    1
    29    22    35    1
    30    23    27    1
    31    25    33    1
    32    26    32    1
    33    28    33    1
    34    29    34    1
    35    30    31    1
    36    30    32    1
    37    31    35    1
    38    32    34    1
    39    33    35    1
@<TRIPOS>SUBSTRUCTURE
     1 RES1        1 GROUP             0 ****  ****    0  
@<TRIPOS>MOLECULE
6EL9:A:B9W802
    36    39     1     0     0
SMALL
NO_CHARGES
****
Generated from the CSD

@<TRIPOS>ATOM
     1 F1      40.9520  25.7260  14.1350   F         1 RES1   0.0000
     2 F2      42.3920  24.6470  12.9470   F         1 RES1   0.0000
     3 O3      41.1290  25.1550  10.7550   O.2       1 RES1   0.0000
     4 O4      36.5340  37.1670   3.2270   O.2       1 RES1   0.0000
     5 O5      39.8490  29.2060   8.7470   O.3       1 RES1   0.0000
     6 N6      37.1990  34.4420   8.7150   N.2       1 RES1   0.0000
     7 N7      40.0180  26.9560  11.6160   N.am      1 RES1   0.0000
     8 N8      37.7940  34.1230   7.5480   N.pl3     1 RES1   0.0000
     9 N9      37.6800  36.9440   5.2020   N.am      1 RES1   0.0000
    10 C10     38.0920  38.3250   5.1570   C.3       1 RES1   0.0000
    11 C11     37.3630  27.6360   8.9340   C.3       1 RES1   0.0000
    12 C12     37.7480  25.6470  10.2330   C.3       1 RES1   0.0000
    13 C13     42.6820  26.9150  13.0970   C.3       1 RES1   0.0000
    14 C14     37.3750  33.4220   9.5450   C.2       1 RES1   0.0000
    15 C15     37.9870  36.1660   6.3070   C.2       1 RES1   0.0000
    16 C16     43.6930  30.0210  11.6050   C.2       1 RES1   0.0000
    17 C17     43.5770  29.2780  10.4450   C.2       1 RES1   0.0000
    18 C18     42.5540  30.3850  12.2930   C.2       1 RES1   0.0000
    19 C19     36.4140  35.0560   4.2500   C.2       1 RES1   0.0000
    20 C20     39.5630  30.9320   7.1670   C.2       1 RES1   0.0000
    21 C21     36.7830  34.3430   5.3200   C.2       1 RES1   0.0000
    22 C22     39.1170  32.1590   6.7260   C.2       1 RES1   0.0000
    23 C23     42.3370  28.9030   9.9670   C.2       1 RES1   0.0000
    24 C24     41.3080  30.0230  11.8120   C.2       1 RES1   0.0000
    25 C25     38.5720  31.1730   9.3570   C.2       1 RES1   0.0000
    26 C26     40.9230  25.9230  11.6810   C.2       1 RES1   0.0000
    27 C27     36.8760  36.4790   4.1750   C.2       1 RES1   0.0000
    28 C28     39.3150  30.4590   8.4420   C.2       1 RES1   0.0000
    29 C29     39.8370  28.9250  10.1500   C.3       1 RES1   0.0000
    30 C30     39.5020  27.4480  10.3470   C.3       1 RES1   0.0000
    31 C31     37.5780  34.8870   6.3980   C.2       1 RES1   0.0000
    32 C32     38.0100  27.1350  10.2080   C.3       1 RES1   0.0000
    33 C33     38.3840  32.8820   7.6450   C.2       1 RES1   0.0000
    34 C34     38.1150  32.4040   8.9210   C.2       1 RES1   0.0000
    35 C35     41.1950  29.2800  10.6530   C.2       1 RES1   0.0000
    36 C36     41.6850  25.7930  12.9800   C.3       1 RES1   0.0000
@<TRIPOS>BOND
     1     1    36    1
     2     2    36    1
     3     3    26    2
     4     4    27    2
     5     5    28    1
     6     5    29    1
     7     6     8    1
     8     6    14    2
     9     7    26   am
    10     7    30    1
    11     8    31    1
    12     8    33    1
    13     9    10    1
    14     9    15    1
    15     9    27   am
    16    11    32    1
    17    12    32    1
    18    13    36    1
    19    14    34    1
    20    15    31    2
    21    16    17    2
    22    16    18    1
    23    17    23    1
    24    18    24    2
    25    19    21    2
    26    19    27    1
    27    20    22    1
    28    20    28    2
    29    21    31    1
    30    22    33    2
    31    23    35    2
    32    24    35    1
    33    25    28    1
    34    25    34    2
    35    26    36    1
    36    29    30    1
    37    29    35    1
    38    30    32    1
    39    33    34    1
@<TRIPOS>SUBSTRUCTURE
     1 RES1        1 GROUP             0 ****  ****    0  
@<TRIPOS>MOLECULE
6EL7:A:B9T802
    29    31     1     0     0
SMALL
NO_CHARGES
****
Generated from the CSD

@<TRIPOS>ATOM
     1 Br1     40.5520  29.9690   6.5350   Br        1 RES1   0.0000
     2 F2      40.7290  25.6090  14.2790   F         1 RES1   0.0000
     3 F3      42.2370  24.3450  13.3090   F         1 RES1   0.0000
     4 O4      42.1900  25.9350  11.0540   O.2       1 RES1   0.0000
     5 O5      39.6130  29.0830   9.2190   O.3       1 RES1   0.0000
     6 N6      37.1830  35.1550   7.7170   N.1       1 RES1   0.0000
     7 N7      41.8160  30.0760  13.2870   N.2       1 RES1   0.0000
     8 N8      43.0450  30.0880  11.2470   N.2       1 RES1   0.0000
     9 N9      40.0880  26.5280  11.7930   N.am      1 RES1   0.0000
    10 C10     38.4250  26.4900  10.0240   C.3       1 RES1   0.0000
    11 C11     42.8060  26.5280  13.8990   C.3       1 RES1   0.0000
    12 C12     37.6090  34.1010   7.9420   C.1       1 RES1   0.0000
    13 C13     40.7680  29.5420  12.6390   C.2       1 RES1   0.0000
    14 C14     41.9780  29.5490  10.6440   C.2       1 RES1   0.0000
    15 C15     38.2680  31.0290   9.8360   C.2       1 RES1   0.0000
    16 C16     37.7820  32.2730   9.4840   C.2       1 RES1   0.0000
    17 C17     44.9670  31.9650  12.6500   C.3       1 RES1   0.0000
    18 C18     45.5070  30.5830  12.8830   C.3       1 RES1   0.0000
    19 C19     38.9310  32.1460   7.3780   C.2       1 RES1   0.0000
    20 C20     39.4130  30.9050   7.7410   C.2       1 RES1   0.0000
    21 C21     41.3720  26.0390  11.9600   C.2       1 RES1   0.0000
    22 C22     39.0930  30.3470   8.9660   C.2       1 RES1   0.0000
    23 C23     39.6040  28.6490  10.5830   C.3       1 RES1   0.0000
    24 C24     42.9300  30.3350  12.5670   C.2       1 RES1   0.0000
    25 C25     39.7010  27.1270  10.5290   C.3       1 RES1   0.0000
    26 C26     38.1130  32.8180   8.2620   C.2       1 RES1   0.0000
    27 C27     40.7910  29.2460  11.2950   C.2       1 RES1   0.0000
    28 C28     44.0940  30.9170  13.2840   C.3       1 RES1   0.0000
    29 C29     41.7350  25.6130  13.3610   C.3       1 RES1   0.0000
@<TRIPOS>BOND
     1     1    20    1
     2     2    29    1
     3     3    29    1
     4     4    21    2
     5     5    22    1
     6     5    23    1
     7     6    12    3
     8     7    13    2
     9     7    24    1
    10     8    14    1
    11     8    24    2
    12     9    21   am
    13     9    25    1
    14    10    25    1
    15    11    29    1
    16    12    26    1
    17    13    27    1
    18    14    27    2
    19    15    16    2
    20    15    22    1
    21    16    26    1
    22    17    18    1
    23    17    28    1
    24    18    28    1
    25    19    20    1
    26    19    26    2
    27    20    22    2
    28    21    29    1
    29    23    25    1
    30    23    27    1
    31    24    28    1
@<TRIPOS>SUBSTRUCTURE
     1 RES1        1 GROUP             0 ****  ****    0  
@<TRIPOS>MOLECULE
6EL6:A:B9Q802
    34    38     1     0     0
SMALL
NO_CHARGES
****
Generated from the CSD

@<TRIPOS>ATOM
     1 F1      37.5200  37.4810   3.5240   F         1 RES1   0.0000
     2 O2      42.0780  26.0450  10.7650   O.2       1 RES1   0.0000
     3 O3      44.5600  30.6670  11.7750   O.3       1 RES1   0.0000
     4 O4      39.2700  28.9440   8.8910   O.3       1 RES1   0.0000
     5 N5      36.9490  34.4040   8.8680   N.2       1 RES1   0.0000
     6 N6      42.2890  30.1410  12.3780   N.2       1 RES1   0.0000
     7 N7      39.9890  26.5890  11.6190   N.am      1 RES1   0.0000
     8 N8      37.6840  34.0550   7.7970   N.pl3     1 RES1   0.0000
     9 C9      44.7530  30.6940  13.1830   C.3       1 RES1   0.0000
    10 C10     38.0990  26.5900  10.1220   C.3       1 RES1   0.0000
    11 C11     36.9820  33.3220   9.6430   C.2       1 RES1   0.0000
    12 C12     41.1190  29.6440  11.9480   C.2       1 RES1   0.0000
    13 C13     37.3260  35.2860   4.3450   C.2       1 RES1   0.0000
    14 C14     37.8400  37.1240   5.8090   C.2       1 RES1   0.0000
    15 C15     43.1660  29.7130  10.1710   C.2       1 RES1   0.0000
    16 C16     39.3230  30.7940   7.4380   C.2       1 RES1   0.0000
    17 C17     37.3600  34.4080   5.4080   C.2       1 RES1   0.0000
    18 C18     37.8830  36.2430   6.8680   C.2       1 RES1   0.0000
    19 C19     39.0130  32.0680   7.0130   C.2       1 RES1   0.0000
    20 C20     41.9480  29.2140   9.7660   C.2       1 RES1   0.0000
    21 C21     42.8360  25.0160  13.4220   C.3       1 RES1   0.0000
    22 C22     43.0370  26.4910  13.5770   C.3       1 RES1   0.0000
    23 C23     38.0650  30.9820   9.4850   C.2       1 RES1   0.0000
    24 C24     41.2990  26.1770  11.7060   C.2       1 RES1   0.0000
    25 C25     37.5580  36.6310   4.5570   C.2       1 RES1   0.0000
    26 C26     43.2890  30.1640  11.4700   C.2       1 RES1   0.0000
    27 C27     38.8770  30.2620   8.6340   C.2       1 RES1   0.0000
    28 C28     39.4860  27.1220  10.3700   C.3       1 RES1   0.0000
    29 C29     39.5460  28.6380  10.2660   C.3       1 RES1   0.0000
    30 C30     37.6460  34.8990   6.6690   C.2       1 RES1   0.0000
    31 C31     38.2070  32.7830   7.8780   C.2       1 RES1   0.0000
    32 C32     41.7140  25.9570  13.1020   C.3       1 RES1   0.0000
    33 C33     40.8960  29.1770  10.6640   C.2       1 RES1   0.0000
    34 C34     37.7470  32.2720   9.0780   C.2       1 RES1   0.0000
@<TRIPOS>BOND
     1     1    25    1
     2     2    24    2
     3     3     9    1
     4     3    26    1
     5     4    27    1
     6     4    29    1
     7     5     8    1
     8     5    11    2
     9     6    12    2
    10     6    26    1
    11     7    24   am
    12     7    28    1
    13     8    30    1
    14     8    31    1
    15    10    28    1
    16    11    34    1
    17    12    33    1
    18    13    17    2
    19    13    25    1
    20    14    18    1
    21    14    25    2
    22    15    20    1
    23    15    26    2
    24    16    19    1
    25    16    27    2
    26    17    30    1
    27    18    30    2
    28    19    31    2
    29    20    33    2
    30    21    22    1
    31    21    32    1
    32    22    32    1
    33    23    27    1
    34    23    34    2
    35    24    32    1
    36    28    29    1
    37    29    33    1
    38    31    34    1
@<TRIPOS>SUBSTRUCTURE
     1 RES1        1 GROUP             0 ****  ****    0  
@<TRIPOS>MOLECULE
5G3J:A:E7T1779
    32    35     1     0     0
SMALL
NO_CHARGES
****
Generated from the CSD

@<TRIPOS>ATOM
     1 F1      44.5080  31.4670  11.0130   F         1 RES1   0.0000
     2 F2      45.2450  29.8900  13.0510   F         1 RES1   0.0000
     3 F3      37.4660  26.8840  11.0750   F         1 RES1   0.0000
     4 F4      37.5270  28.8620  10.0100   F         1 RES1   0.0000
     5 F5      38.4660  27.0420   9.0290   F         1 RES1   0.0000
     6 O6      36.7020  34.8010   7.5230   O.2       1 RES1   0.0000
     7 O7      43.8130  27.6730  13.6950   O.3       1 RES1   0.0000
     8 O8      39.2620  28.8280  12.0770   O.3       1 RES1   0.0000
     9 N9      38.2500  33.3860   6.7730   N.am      1 RES1   0.0000
    10 N10     40.0130  30.0070   9.7430   N.2       1 RES1   0.0000
    11 C11     41.9580  24.7300  13.4490   C.3       1 RES1   0.0000
    12 C12     42.2590  25.5300  12.1840   C.3       1 RES1   0.0000
    13 C13     40.7270  30.7170   6.1830   C.2       1 RES1   0.0000
    14 C14     37.3920  33.1950   9.0200   C.2       1 RES1   0.0000
    15 C15     39.9020  31.8150   5.9680   C.2       1 RES1   0.0000
    16 C16     40.7750  30.1020   7.4300   C.2       1 RES1   0.0000
    17 C17     38.2050  32.1350   9.2820   C.2       1 RES1   0.0000
    18 C18     42.6530  30.0540  10.5320   C.2       1 RES1   0.0000
    19 C19     40.1980  26.6610  11.4250   C.3       1 RES1   0.0000
    20 C20     37.4270  33.8350   7.7480   C.2       1 RES1   0.0000
    21 C21     43.7810  30.3660  11.2770   C.2       1 RES1   0.0000
    22 C22     44.1520  29.5610  12.3370   C.2       1 RES1   0.0000
    23 C23     43.4040  28.4290  12.6480   C.2       1 RES1   0.0000
    24 C24     39.0800  32.2980   6.9880   C.2       1 RES1   0.0000
    25 C25     39.9560  30.5620   8.4730   C.2       1 RES1   0.0000
    26 C26     40.6040  28.6950  10.0430   C.3       1 RES1   0.0000
    27 C27     41.4670  26.8410  12.2650   C.3       1 RES1   0.0000
    28 C28     39.0820  31.6600   8.2590   C.2       1 RES1   0.0000
    29 C29     41.8950  28.9090  10.8190   C.2       1 RES1   0.0000
    30 C30     42.2840  28.0650  11.8670   C.2       1 RES1   0.0000
    31 C31     38.2460  27.6920  10.2470   C.3       1 RES1   0.0000
    32 C32     39.5770  27.9920  10.9570   C.3       1 RES1   0.0000
@<TRIPOS>BOND
     1     1    21    1
     2     2    22    1
     3     3    31    1
     4     4    31    1
     5     5    31    1
     6     6    20    2
     7     7    23    1
     8     8    32    1
     9     9    20   am
    10     9    24    1
    11    10    25    1
    12    10    26    1
    13    11    12    1
    14    12    27    1
    15    13    15    1
    16    13    16    2
    17    14    17    2
    18    14    20    1
    19    15    24    2
    20    16    25    1
    21    17    28    1
    22    18    21    2
    23    18    29    1
    24    19    27    1
    25    19    32    1
    26    21    22    1
    27    22    23    2
    28    23    30    1
    29    24    28    1
    30    25    28    2
    31    26    29    1
    32    26    32    1
    33    27    30    1
    34    29    30    2
    35    31    32    1
@<TRIPOS>SUBSTRUCTURE
     1 RES1        1 GROUP             0 ****  ****    0  
@<TRIPOS>MOLECULE
3CLD:A:GW61
    37    41     1     0     0
SMALL
NO_CHARGES
****
Generated from the CSD

@<TRIPOS>ATOM
     1 S1      41.4980  26.7850  13.7890   S.3       1 RES1   0.0000
     2 F2      40.8670  24.4110  14.5040   F         1 RES1   0.0000
     3 F3      40.6100  30.9520   5.5380   F         1 RES1   0.0000
     4 F4      40.5210  30.8470   9.5960   F         1 RES1   0.0000
     5 O5      42.4450  24.9050  12.2480   O.2       1 RES1   0.0000
     6 O6      44.3860  27.0890  13.0650   O.2       1 RES1   0.0000
     7 O7      38.0740  34.4560   7.5640   O.2       1 RES1   0.0000
     8 O8      38.0590  28.4900  10.6720   O.3       1 RES1   0.0000
     9 O9      45.8550  29.4590  13.2120   O.3       1 RES1   0.0000
    10 O10     43.0690  28.2080  11.5120   O.3       1 RES1   0.0000
    11 C11     44.4140  26.4060   9.8550   C.3       1 RES1   0.0000
    12 C12     37.4410  29.5170   8.0690   C.3       1 RES1   0.0000
    13 C13     40.0040  26.3570  10.3630   C.3       1 RES1   0.0000
    14 C14     41.7560  25.3710  14.8730   C.3       1 RES1   0.0000
    15 C15     46.1640  30.7810  13.3250   C.2       1 RES1   0.0000
    16 C16     45.1120  31.5570  12.8920   C.2       1 RES1   0.0000
    17 C17     44.0940  30.6610  12.4860   C.2       1 RES1   0.0000
    18 C18     37.6310  32.7750   9.1190   C.2       1 RES1   0.0000
    19 C19     37.7750  31.4790   9.3740   C.2       1 RES1   0.0000
    20 C20     41.0220  29.4870   7.3150   C.3       1 RES1   0.0000
    21 C21     39.0680  32.4170   7.0510   C.2       1 RES1   0.0000
    22 C22     42.3000  27.0680   8.7080   C.3       1 RES1   0.0000
    23 C23     40.2750  28.5940  11.4650   C.3       1 RES1   0.0000
    24 C24     42.1430  26.0880  12.3080   C.2       1 RES1   0.0000
    25 C25     44.0340  28.1050  12.4800   C.2       1 RES1   0.0000
    26 C26     39.9850  30.2320   6.5080   C.3       1 RES1   0.0000
    27 C27     38.2470  33.2940   7.8910   C.2       1 RES1   0.0000
    28 C28     39.1860  29.3520  10.7300   C.3       1 RES1   0.0000
    29 C29     44.5940  29.3960  12.7000   C.2       1 RES1   0.0000
    30 C30     42.9020  26.3670   9.9140   C.3       1 RES1   0.0000
    31 C31     39.1550  31.1280   7.3680   C.2       1 RES1   0.0000
    32 C32     40.3740  28.8160   8.5070   C.3       1 RES1   0.0000
    33 C33     41.4540  28.1570   9.3410   C.3       1 RES1   0.0000
    34 C34     39.6200  29.8530   9.3430   C.3       1 RES1   0.0000
    35 C35     42.2960  27.0470  11.1420   C.3       1 RES1   0.0000
    36 C36     38.4910  30.4990   8.5380   C.3       1 RES1   0.0000
    37 C37     40.9490  27.5270  10.6190   C.3       1 RES1   0.0000
@<TRIPOS>BOND
     1     1    14    1
     2     1    24    1
     3     2    14    1
     4     3    26    1
     5     4    34    1
     6     5    24    2
     7     6    25    2
     8     7    27    2
     9     8    28    1
    10     9    15    1
    11     9    29    1
    12    10    25    1
    13    10    35    1
    14    11    30    1
    15    12    36    1
    16    13    37    1
    17    15    16    2
    18    16    17    1
    19    17    29    2
    20    18    19    2
    21    18    27    1
    22    19    36    1
    23    20    26    1
    24    20    32    1
    25    21    27    1
    26    21    31    2
    27    22    30    1
    28    22    33    1
    29    23    28    1
    30    23    37    1
    31    24    35    1
    32    25    29    1
    33    26    31    1
    34    28    34    1
    35    30    35    1
    36    31    36    1
    37    32    33    1
    38    32    34    1
    39    33    37    1
    40    34    36    1
    41    35    37    1
@<TRIPOS>SUBSTRUCTURE
     1 RES1        1 GROUP             0 ****  ****    0  
@<TRIPOS>MOLECULE
4UDD:A:CV71782
    34    39     1     0     0
SMALL
NO_CHARGES
****
Generated from the CSD

@<TRIPOS>ATOM
     1 O1      40.8220  25.3550  15.0260   O.3       1 RES1   0.0000
     2 O2      38.2680  34.3970   7.2370   O.2       1 RES1   0.0000
     3 O3      37.9390  28.6050  10.7590   O.3       1 RES1   0.0000
     4 O4      41.9070  24.9330  12.6000   O.2       1 RES1   0.0000
     5 O5      44.3500  27.6130  11.0640   O.3       1 RES1   0.0000
     6 O6      42.7730  28.3060  12.5630   O.3       1 RES1   0.0000
     7 C7      37.5630  29.5000   7.9350   C.3       1 RES1   0.0000
     8 C8      39.9710  26.4340  10.7660   C.3       1 RES1   0.0000
     9 C9      41.4070  26.4670  14.3270   C.3       1 RES1   0.0000
    10 C10     45.4820  32.1670  13.4900   C.3       1 RES1   0.0000
    11 C11     45.7580  31.6450  12.0720   C.3       1 RES1   0.0000
    12 C12     45.6610  31.0310  14.5170   C.3       1 RES1   0.0000
    13 C13     37.6470  32.8040   8.8150   C.2       1 RES1   0.0000
    14 C14     44.7520  30.5160  11.7470   C.3       1 RES1   0.0000
    15 C15     44.7470  29.8340  14.1710   C.3       1 RES1   0.0000
    16 C16     40.3500  30.1290   6.5960   C.3       1 RES1   0.0000
    17 C17     41.3060  29.4370   7.5820   C.3       1 RES1   0.0000
    18 C18     37.7560  31.5470   9.2230   C.2       1 RES1   0.0000
    19 C19     39.2670  32.3090   6.9070   C.2       1 RES1   0.0000
    20 C20     42.6250  27.1790   9.4350   C.3       1 RES1   0.0000
    21 C21     40.1320  28.7730  11.7860   C.3       1 RES1   0.0000
    22 C22     38.3820  33.2550   7.6140   C.2       1 RES1   0.0000
    23 C23     44.1920  28.0910  12.4210   C.3       1 RES1   0.0000
    24 C24     39.0980  29.4390  10.8530   C.3       1 RES1   0.0000
    25 C25     41.8270  26.0920  12.9200   C.2       1 RES1   0.0000
    26 C26     43.2140  26.7590  10.8190   C.3       1 RES1   0.0000
    27 C27     44.9980  29.3600  12.7270   C.3       1 RES1   0.0000
    28 C28     39.3790  31.0530   7.3390   C.2       1 RES1   0.0000
    29 C29     40.5510  28.8070   8.7810   C.3       1 RES1   0.0000
    30 C30     41.5830  28.2540   9.8190   C.3       1 RES1   0.0000
    31 C31     39.6820  29.9160   9.4850   C.3       1 RES1   0.0000
    32 C32     38.6040  30.5050   8.5100   C.3       1 RES1   0.0000
    33 C33     42.1490  27.1720  11.8970   C.3       1 RES1   0.0000
    34 C34     40.9100  27.6360  11.0950   C.3       1 RES1   0.0000
@<TRIPOS>BOND
     1     1     9    1
     2     2    22    2
     3     3    24    1
     4     4    25    2
     5     5    23    1
     6     5    26    1
     7     6    23    1
     8     6    33    1
     9     7    32    1
    10     8    34    1
    11     9    25    1
    12    10    11    1
    13    10    12    1
    14    11    14    1
    15    12    15    1
    16    13    18    2
    17    13    22    1
    18    14    27    1
    19    15    27    1
    20    16    17    1
    21    16    28    1
    22    17    29    1
    23    18    32    1
    24    19    22    1
    25    19    28    2
    26    20    26    1
    27    20    30    1
    28    21    24    1
    29    21    34    1
    30    23    27    1
    31    24    31    1
    32    25    33    1
    33    26    33    1
    34    28    32    1
    35    29    30    1
    36    29    31    1
    37    30    34    1
    38    31    32    1
    39    33    34    1
@<TRIPOS>SUBSTRUCTURE
     1 RES1        1 GROUP             0 ****  ****    0  
@<TRIPOS>MOLECULE
3K22:A:JZS1
    36    38     1     0     0
SMALL
NO_CHARGES
****
Generated from the CSD

@<TRIPOS>ATOM
     1 F1      36.8810  28.2780  10.4510   F         1 RES1   0.0000
     2 F2      37.2710  26.5240  11.6560   F         1 RES1   0.0000
     3 F3      37.9620  26.5810   9.6080   F         1 RES1   0.0000
     4 F4      39.4160  25.8470  12.1310   F         1 RES1   0.0000
     5 F5      41.0180  27.2850  12.2800   F         1 RES1   0.0000
     6 F6      40.5910  26.3130  10.3810   F         1 RES1   0.0000
     7 O7      32.3030  34.4810   2.8160   O.2       1 RES1   0.0000
     8 O8      35.3880  33.1750   3.1170   O.2       1 RES1   0.0000
     9 O9      38.8590  28.6850  12.3110   O.3       1 RES1   0.0000
    10 N10     32.2480  33.8290   0.6320   N.am      1 RES1   0.0000
    11 N11     37.0410  33.7530   8.5950   N.2       1 RES1   0.0000
    12 N12     38.9170  30.1020  10.1470   N.2       1 RES1   0.0000
    13 N13     34.7320  35.3290   2.6790   N.am      1 RES1   0.0000
    14 N14     37.7820  33.6830   7.4870   N.pl3     1 RES1   0.0000
    15 C15     33.9110  36.2380   0.5860   C.3       1 RES1   0.0000
    16 C16     41.2290  30.5850   5.8800   C.3       1 RES1   0.0000
    17 C17     37.4160  32.6940   9.3020   C.2       1 RES1   0.0000
    18 C18     39.6320  28.8520  10.0840   C.3       1 RES1   0.0000
    19 C19     37.5780  36.6050   5.3490   C.2       1 RES1   0.0000
    20 C20     37.9170  35.7790   6.3910   C.2       1 RES1   0.0000
    21 C21     36.7650  36.1500   4.3430   C.2       1 RES1   0.0000
    22 C22     40.0210  30.4080   8.0160   C.2       1 RES1   0.0000
    23 C23     39.5330  32.2240   6.5260   C.2       1 RES1   0.0000
    24 C24     36.6210  34.0170   5.4290   C.2       1 RES1   0.0000
    25 C25     32.8130  34.4220   1.7140   C.2       1 RES1   0.0000
    26 C26     35.4360  34.3690   3.3370   C.2       1 RES1   0.0000
    27 C27     34.1500  35.0040   1.4080   C.3       1 RES1   0.0000
    28 C28     39.1120  30.8050   8.9590   C.2       1 RES1   0.0000
    29 C29     37.4380  34.4960   6.4190   C.2       1 RES1   0.0000
    30 C30     38.6290  32.6170   7.4710   C.2       1 RES1   0.0000
    31 C31     40.2260  31.0890   6.8440   C.2       1 RES1   0.0000
    32 C32     36.2990  34.8620   4.3980   C.2       1 RES1   0.0000
    33 C33     38.4120  31.9470   8.6480   C.2       1 RES1   0.0000
    34 C34     37.7870  27.3250  10.7120   C.3       1 RES1   0.0000
    35 C35     40.0400  26.8390  11.4810   C.3       1 RES1   0.0000
    36 C36     39.0830  27.9340  11.1460   C.3       1 RES1   0.0000
@<TRIPOS>BOND
     1     1    34    1
     2     2    34    1
     3     3    34    1
     4     4    35    1
     5     5    35    1
     6     6    35    1
     7     7    25    2
     8     8    26    2
     9     9    36    1
    10    10    25   am
    11    11    14    1
    12    11    17    2
    13    12    18    1
    14    12    28    1
    15    13    26   am
    16    13    27    1
    17    14    29    1
    18    14    30    1
    19    15    27    1
    20    16    31    1
    21    17    33    1
    22    18    36    1
    23    19    20    2
    24    19    21    1
    25    20    29    1
    26    21    32    2
    27    22    28    1
    28    22    31    2
    29    23    30    2
    30    23    31    1
    31    24    29    2
    32    24    32    1
    33    25    27    1
    34    26    32    1
    35    28    33    2
    36    30    33    1
    37    34    36    1
    38    35    36    1
@<TRIPOS>SUBSTRUCTURE
     1 RES1        1 GROUP             0 ****  ****    0  
@<TRIPOS>MOLECULE
3K23:A:JZN1
    47    51     1     0     0
SMALL
NO_CHARGES
****
Generated from the CSD

@<TRIPOS>ATOM
     1 F1      44.3040  30.6770  12.8070   F         1 RES1   0.0000
     2 F2      36.8930  27.8180  11.1930   F         1 RES1   0.0000
     3 F3      38.2040  27.9110   9.4680   F         1 RES1   0.0000
     4 F4      38.4540  26.3490  10.9970   F         1 RES1   0.0000
     5 O5      32.8860  36.9440   0.8090   O.2       1 RES1   0.0000
     6 O6      34.7110  33.1800   4.0250   O.2       1 RES1   0.0000
     7 O7      38.1490  29.3820  12.2020   O.3       1 RES1   0.0000
     8 O8      42.4260  26.3110  10.1690   O.3       1 RES1   0.0000
     9 N9      35.0120  36.9180   1.6940   N.am      1 RES1   0.0000
    10 N10     37.2970  34.0840   8.5570   N.2       1 RES1   0.0000
    11 N11     39.0860  30.5480  10.3060   N.2       1 RES1   0.0000
    12 N12     38.0010  33.9160   7.4310   N.pl3     1 RES1   0.0000
    13 N13     34.8250  34.7270   2.3880   N.am      1 RES1   0.0000
    14 C14     41.6820  26.8520   9.0860   C.3       1 RES1   0.0000
    15 C15     41.2860  30.5280   5.9140   C.3       1 RES1   0.0000
    16 C16     40.7340  25.7930  11.9920   C.3       1 RES1   0.0000
    17 C17     41.4410  26.7410  14.0670   C.3       1 RES1   0.0000
    18 C18     34.8090  33.7940   1.3000   C.3       1 RES1   0.0000
    19 C19     37.6860  33.0630   9.3240   C.2       1 RES1   0.0000
    20 C20     39.9430  29.4450  10.7190   C.3       1 RES1   0.0000
    21 C21     33.3860  33.2900   1.1590   C.3       1 RES1   0.0000
    22 C22     37.9790  36.4420   4.8050   C.2       1 RES1   0.0000
    23 C23     44.4240  29.1830  11.0210   C.2       1 RES1   0.0000
    24 C24     43.9330  28.0770  10.3720   C.2       1 RES1   0.0000
    25 C25     38.3400  35.7800   5.9610   C.2       1 RES1   0.0000
    26 C26     32.5390  34.3330   1.8100   C.3       1 RES1   0.0000
    27 C27     36.9710  35.9520   4.0000   C.2       1 RES1   0.0000
    28 C28     42.7350  28.9240  12.6950   C.2       1 RES1   0.0000
    29 C29     36.6670  34.1180   5.5080   C.2       1 RES1   0.0000
    30 C30     40.1650  30.5780   8.0900   C.2       1 RES1   0.0000
    31 C31     39.6640  32.3130   6.5020   C.2       1 RES1   0.0000
    32 C32     39.7990  27.9620  12.8010   C.3       1 RES1   0.0000
    33 C33     33.7370  36.4740   1.5440   C.2       1 RES1   0.0000
    34 C34     43.8190  29.5980  12.1800   C.2       1 RES1   0.0000
    35 C35     35.2350  34.1860   3.5740   C.2       1 RES1   0.0000
    36 C36     42.8470  27.4080  10.8840   C.2       1 RES1   0.0000
    37 C37     37.6720  34.6230   6.2900   C.2       1 RES1   0.0000
    38 C38     39.3110  31.0880   9.0380   C.2       1 RES1   0.0000
    39 C39     33.5220  35.3080   2.4200   C.3       1 RES1   0.0000
    40 C40     38.8120  32.8150   7.4470   C.2       1 RES1   0.0000
    41 C41     40.3340  31.1690   6.8640   C.2       1 RES1   0.0000
    42 C42     36.3200  34.7910   4.3570   C.2       1 RES1   0.0000
    43 C43     38.6310  32.2330   8.6800   C.2       1 RES1   0.0000
    44 C44     42.2260  27.8150  12.0510   C.2       1 RES1   0.0000
    45 C45     38.1810  27.6480  10.8010   C.3       1 RES1   0.0000
    46 C46     39.1010  28.5470  11.5900   C.3       1 RES1   0.0000
    47 C47     41.0450  27.1100  12.6550   C.3       1 RES1   0.0000
@<TRIPOS>BOND
     1     1    34    1
     2     2    45    1
     3     3    45    1
     4     4    45    1
     5     5    33    2
     6     6    35    2
     7     7    46    1
     8     8    14    1
     9     8    36    1
    10     9    33   am
    11    10    12    1
    12    10    19    2
    13    11    20    1
    14    11    38    1
    15    12    37    1
    16    12    40    1
    17    13    18    1
    18    13    35   am
    19    13    39    1
    20    15    41    1
    21    16    47    1
    22    17    47    1
    23    18    21    1
    24    19    43    1
    25    20    46    1
    26    21    26    1
    27    22    25    2
    28    22    27    1
    29    23    24    2
    30    23    34    1
    31    24    36    1
    32    25    37    1
    33    26    39    1
    34    27    42    2
    35    28    34    2
    36    28    44    1
    37    29    37    2
    38    29    42    1
    39    30    38    1
    40    30    41    2
    41    31    40    2
    42    31    41    1
    43    32    46    1
    44    32    47    1
    45    33    39    1
    46    35    42    1
    47    36    44    2
    48    38    43    2
    49    40    43    1
    50    44    47    1
    51    45    46    1
@<TRIPOS>SUBSTRUCTURE
     1 RES1        1 GROUP             0 ****  ****    0  
