@<TRIPOS>MOLECULE
A:LZ11301
    15    16     1     0     1
SMALL
NO_CHARGES
****
Generated from the CSD

@<TRIPOS>ATOM
     1 C1      26.6475   4.4300  64.2625   C.ar      1 LZ11301   0.0000
     2 C2      27.3295   5.6500  64.3745   C.ar      1 LZ11301   0.0000
     3 C3      26.8645   6.7380  63.6395   C.ar      1 LZ11301   0.0000
     4 C4      25.7625   6.6120  62.8126   C.ar      1 LZ11301   0.0000
     5 C5      25.1035   5.4010  62.7056   C.ar      1 LZ11301   0.0000
     6 C6      25.5455   4.3090  63.4255   C.ar      1 LZ11301   0.0000
     7 N       27.3085   3.5470  65.0775   N.pl3     1 LZ11301   0.0000
     8 C9      28.3846   5.4130  65.2895   C.2       1 LZ11301   0.0000
     9 N2      28.3646   4.1370  65.6975   N.2       1 LZ11301   0.0000
    10 H1      25.4121   7.4713  62.2427   H         1 LZ11301   0.0000
    11 H2      24.2361   5.3086  62.0536   H         1 LZ11301   0.0000
    12 H3      27.0427   2.5754  65.2021   H         1 LZ11301   0.0000
    13 H4      29.1074   6.1599  65.6144   H         1 LZ11301   0.0000
    14 H5      27.3736   7.6976  63.7166   H         1 LZ11301   0.0000
    15 H6      25.0306   3.3535  63.3373   H         1 LZ11301   0.0000
@<TRIPOS>BOND
     1     1     2   ar
     2     1     6   ar
     3     1     7    1
     4     2     3   ar
     5     2     8    1
     6     3     4   ar
     7     4     5   ar
     8     5     6   ar
     9     7     9    1
    10     8     9    2
    11     4    10    1
    12     5    11    1
    13     7    12    1
    14     8    13    1
    15     3    14    1
    16     6    15    1
@<TRIPOS>SUBSTRUCTURE
     1 LZ11301     1 GROUP             0 A     LZ1     0  
@<TRIPOS>SET
CCDC_LIGAND STATIC ATOMS
15 1 2 3 4 5 6 7 8 9 \
10 11 12 13 14 15 
