@<TRIPOS>MOLECULE
A:L0F1299
    36    39     1     0     1
SMALL
NO_CHARGES
****
Generated from the CSD

@<TRIPOS>ATOM
     1 O1      25.0097   5.3443  62.3612   O.2       1 L0F1299   0.0000
     2 C2      25.8968   6.1868  62.4083   C.2       1 L0F1299   0.0000
     3 N3      27.0021   6.0245  63.2056   N.am      1 L0F1299   0.0000
     4 C4      27.2850   4.9165  64.0668   C.2       1 L0F1299   0.0000
     5 C5      26.6112   3.7334  64.1874   C.2       1 L0F1299   0.0000
     6 N6      27.2480   2.9835  65.1216   N.pl3     1 L0F1299   0.0000
     7 N8      28.3471   3.7115  65.5940   N.2       1 L0F1299   0.0000
     8 C9      28.3796   4.8706  64.9649   C.2       1 L0F1299   0.0000
     9 C10     29.3760   5.9493  65.1601   C.2       1 L0F1299   0.0000
    10 N11     29.3554   7.1058  64.5352   N.2       1 L0F1299   0.0000
    11 C12     30.3906   7.8687  64.9451   C.ar      1 L0F1299   0.0000
    12 C13     30.8572   9.1710  64.5861   C.ar      1 L0F1299   0.0000
    13 C14     31.9974   9.6918  65.1949   C.ar      1 L0F1299   0.0000
    14 C15     32.7271   8.9242  66.1296   C.ar      1 L0F1299   0.0000
    15 C16     32.2916   7.6367  66.4915   C.ar      1 L0F1299   0.0000
    16 C17     31.1400   7.0830  65.8756   C.ar      1 L0F1299   0.0000
    17 N18     30.4542   5.8909  66.0052   N.pl3     1 L0F1299   0.0000
    18 C20     25.7880   7.4273  61.5803   C.ar      1 L0F1299   0.0000
    19 C21     24.8956   7.4842  60.4684   C.ar      1 L0F1299   0.0000
    20 C22     24.7995   8.6583  59.6939   C.ar      1 L0F1299   0.0000
    21 C23     25.5838   9.7856  60.0154   C.ar      1 L0F1299   0.0000
    22 C24     26.4712   9.7448  61.1134   C.ar      1 L0F1299   0.0000
    23 C25     26.5764   8.5756  61.8969   C.ar      1 L0F1299   0.0000
    24 H1      27.2598   8.5488  62.7444   H         1 L0F1299   0.0000
    25 H2      27.6919   6.7687  63.1821   H         1 L0F1299   0.0000
    26 H3      25.7205   3.4439  63.6318   H         1 L0F1299   0.0000
    27 H4      26.9747   2.0545  65.4259   H         1 L0F1299   0.0000
    28 H5      30.3228   9.7551  63.8383   H         1 L0F1299   0.0000
    29 H6      32.3288  10.6993  64.9479   H         1 L0F1299   0.0000
    30 H7      33.6339   9.3324  66.5734   H         1 L0F1299   0.0000
    31 H8      32.8368   7.0667  67.2424   H         1 L0F1299   0.0000
    32 H9      30.7021   5.1164  66.6126   H         1 L0F1299   0.0000
    33 H10     24.2863   6.6173  60.2171   H         1 L0F1299   0.0000
    34 H11     24.1180   8.6948  58.8452   H         1 L0F1299   0.0000
    35 H12     25.5049  10.6906  59.4149   H         1 L0F1299   0.0000
    36 H13     27.0758  10.6175  61.3560   H         1 L0F1299   0.0000
@<TRIPOS>BOND
     1     1     2    2
     2     2     3   am
     3     2    18    1
     4     3     4    1
     5     4     5    2
     6     4     8    1
     7     5     6    1
     8     6     7    1
     9     7     8    2
    10     8     9    1
    11     9    10    2
    12     9    17    1
    13    10    11    1
    14    11    12   ar
    15    11    16   ar
    16    12    13   ar
    17    13    14   ar
    18    14    15   ar
    19    15    16   ar
    20    16    17    1
    21    18    19   ar
    22    18    23   ar
    23    19    20   ar
    24    20    21   ar
    25    21    22   ar
    26    22    23   ar
    27    23    24    1
    28     3    25    1
    29     5    26    1
    30     6    27    1
    31    12    28    1
    32    13    29    1
    33    14    30    1
    34    15    31    1
    35    17    32    1
    36    19    33    1
    37    20    34    1
    38    21    35    1
    39    22    36    1
@<TRIPOS>SUBSTRUCTURE
     1 L0F1299     1 GROUP             0 A     L0F     0  
@<TRIPOS>SET
CCDC_LIGAND STATIC ATOMS
36 1 2 3 4 5 6 7 8 9 \
10 11 12 13 14 15 16 17 18 19 \
20 21 22 23 24 25 26 27 28 29 \
30 31 32 33 34 35 36 
