@<TRIPOS>MOLECULE
A:5BN301
    38    41     1     0     1
SMALL
NO_CHARGES
****
Generated from the CSD

@<TRIPOS>ATOM
     1 N22     25.8090   9.5581  58.7120   N.3       1 5BN301   0.0000
     2 C21     25.5284  10.4781  59.8201   C.3       1 5BN301   0.0000
     3 C20     25.8453   9.8497  61.2070   C.3       1 5BN301   0.0000
     4 N19     25.4353   8.4164  61.4025   N.pl3     1 5BN301   0.0000
     5 C7      26.0450   7.4336  62.2838   C.ar      1 5BN301   0.0000
     6 C8      27.2903   7.8117  62.9000   C.ar      1 5BN301   0.0000
     7 C9      28.0897   6.9654  63.8302   C.ar      1 5BN301   0.0000
     8 C14     29.3355   7.4867  64.3580   C.2       1 5BN301   0.0000
     9 C15     29.9367   8.7584  64.1051   C.2       1 5BN301   0.0000
    10 C16     31.1444   8.8402  64.8184   C.2       1 5BN301   0.0000
    11 C17     31.2901   7.6512  65.4972   C.2       1 5BN301   0.0000
    12 N18     30.1919   6.8689  65.1994   N.pl3     1 5BN301   0.0000
    13 C10     27.4918   5.6568  64.0914   C.ar      1 5BN301   0.0000
    14 C11     27.9172   4.4859  64.9503   C.2       1 5BN301   0.0000
    15 O13     28.9027   4.3724  65.6526   O.2       1 5BN301   0.0000
    16 N12     26.9275   3.4873  64.7894   N.am      1 5BN301   0.0000
    17 C6      25.9502   3.9761  63.9044   C.ar      1 5BN301   0.0000
    18 C1      24.7790   3.4045  63.4063   C.ar      1 5BN301   0.0000
    19 C2      23.9623   4.1609  62.5012   C.ar      1 5BN301   0.0000
    20 C3      24.2846   5.4727  62.0806   C.ar      1 5BN301   0.0000
    21 F       23.4450   6.0915  61.2280   F         1 5BN301   0.0000
    22 C4      25.5055   6.1046  62.5777   C.ar      1 5BN301   0.0000
    23 C5      26.2945   5.3060  63.4845   C.ar      1 5BN301   0.0000
    24 H1      25.3376  10.4454  61.9642   H         1 5BN301   0.0000
    25 H2      26.9219   9.9098  61.3595   H         1 5BN301   0.0000
    26 H3      29.5257   9.5370  63.4641   H         1 5BN301   0.0000
    27 H4      24.4885   2.3971  63.7007   H         1 5BN301   0.0000
    28 H5      26.9237   2.5757  65.2358   H         1 5BN301   0.0000
    29 H6      24.6413   8.0980  60.8563   H         1 5BN301   0.0000
    30 H7      25.2421   8.7224  58.8142   H         1 5BN301   0.0000
    31 H8      25.5874  10.0116  57.8314   H         1 5BN301   0.0000
    32 H9      30.0452   5.9357  65.5707   H         1 5BN301   0.0000
    33 H10     24.4740  10.7488  59.7915   H         1 5BN301   0.0000
    34 H11     26.1364  11.3728  59.6944   H         1 5BN301   0.0000
    35 H12     27.6813   8.8008  62.6663   H         1 5BN301   0.0000
    36 H13     23.0506   3.7035  62.1197   H         1 5BN301   0.0000
    37 H14     32.1187   7.3782  66.1490   H         1 5BN301   0.0000
    38 H15     31.8337   9.6832  64.8319   H         1 5BN301   0.0000
@<TRIPOS>BOND
     1     1     2    1
     2     2     3    1
     3     3     4    1
     4     4     5    1
     5     5     6   ar
     6     5    22   ar
     7     6     7   ar
     8     7     8    1
     9     7    13   ar
    10     8     9    2
    11     8    12    1
    12     9    10    1
    13    10    11    2
    14    11    12    1
    15    13    14    1
    16    13    23   ar
    17    14    15    2
    18    14    16   am
    19    16    17    1
    20    17    18   ar
    21    17    23   ar
    22    18    19   ar
    23    19    20   ar
    24    20    21    1
    25    20    22   ar
    26    22    23   ar
    27     3    24    1
    28     3    25    1
    29     9    26    1
    30    18    27    1
    31    16    28    1
    32     4    29    1
    33     1    30    1
    34     1    31    1
    35    12    32    1
    36     2    33    1
    37     2    34    1
    38     6    35    1
    39    19    36    1
    40    11    37    1
    41    10    38    1
@<TRIPOS>SUBSTRUCTURE
     1 5BN301      1 GROUP             0 A     5BN     0  
@<TRIPOS>SET
CCDC_LIGAND STATIC ATOMS
38 1 2 3 4 5 6 7 8 9 \
10 11 12 13 14 15 16 17 18 19 \
20 21 22 23 24 25 26 27 28 29 \
30 31 32 33 34 35 36 37 38 
