@<TRIPOS>MOLECULE
A:1N3299
    53    56     1     0     1
SMALL
NO_CHARGES
****
Generated from the CSD

@<TRIPOS>ATOM
     1 C1      33.7946  12.2972  64.1547   C.3       1 1N3299   0.0000
     2 O2      34.0301  11.1975  65.0577   O.3       1 1N3299   0.0000
     3 C3      32.9786  10.2668  65.0492   C.ar      1 1N3299   0.0000
     4 C4      31.9959  10.2947  64.0770   C.ar      1 1N3299   0.0000
     5 C5      30.9941   9.3498  64.1128   C.ar      1 1N3299   0.0000
     6 C6      30.9562   8.3880  65.1126   C.ar      1 1N3299   0.0000
     7 C7      31.9349   8.3581  66.0877   C.ar      1 1N3299   0.0000
     8 C8      32.9377   9.3071  66.0510   C.ar      1 1N3299   0.0000
     9 C9      29.8694   7.3733  65.0212   C.2       1 1N3299   0.0000
    10 N10     29.9951   6.0645  65.4862   N.pl3     1 1N3299   0.0000
    11 C11     28.8777   5.4654  65.0929   C.ar      1 1N3299   0.0000
    12 C12     28.0672   6.5198  64.3972   C.ar      1 1N3299   0.0000
    13 N13     28.7468   7.6228  64.4011   N.2       1 1N3299   0.0000
    14 C14     26.8340   6.1841  63.8580   C.ar      1 1N3299   0.0000
    15 C15     26.4684   4.8527  64.0555   C.ar      1 1N3299   0.0000
    16 C16     27.2558   3.9283  64.7069   C.ar      1 1N3299   0.0000
    17 N17     28.4380   4.2432  65.2110   N.ar      1 1N3299   0.0000
    18 BR1     24.8175   4.1932  63.4156   Br        1 1N3299   0.0000
    19 N19     25.9161   7.0122  63.1634   N.pl3     1 1N3299   0.0000
    20 C20     26.3423   8.3670  62.8200   C.3       1 1N3299   0.0000
    21 C21     27.2070   8.3203  61.5689   C.3       1 1N3299   0.0000
    22 C22     26.5274   7.6060  60.4212   C.3       1 1N3299   0.0000
    23 N23     25.4116   8.3768  59.9351   N.am      1 1N3299   0.0000
    24 C24     24.1156   8.0652  60.2866   C.2       1 1N3299   0.0000
    25 O25     23.8086   7.0724  60.9436   O.2       1 1N3299   0.0000
    26 C26     23.0537   9.0137  59.8353   C.3       1 1N3299   0.0000
    27 C27     21.9874   9.3421  60.8462   C.2       1 1N3299   0.0000
    28 C28     21.6588   8.4547  59.7050   C.2       1 1N3299   0.0000
    29 C29     23.3314  10.1060  58.8430   C.3       1 1N3299   0.0000
    30 N30     23.5861   9.6557  57.4548   N.3       1 1N3299   0.0000
    31 H1      33.7085   9.3022  66.8203   H         1 1N3299   0.0000
    32 H2      32.8823  12.8162  64.4450   H         1 1N3299   0.0000
    33 H3      34.6349  12.9885  64.1976   H         1 1N3299   0.0000
    34 H4      33.6887  11.9171  63.1397   H         1 1N3299   0.0000
    35 H5      26.8937   2.9064  64.8101   H         1 1N3299   0.0000
    36 H6      32.0135  11.0523  63.2949   H         1 1N3299   0.0000
    37 H7      30.2211   9.3576  63.3457   H         1 1N3299   0.0000
    38 H8      31.9158   7.6009  66.8701   H         1 1N3299   0.0000
    39 H9      24.9923   6.6746  62.9127   H         1 1N3299   0.0000
    40 H10     26.9171   8.7874  63.6440   H         1 1N3299   0.0000
    41 H11     25.4670   8.9876  62.6342   H         1 1N3299   0.0000
    42 H12     30.7668   5.6611  66.0078   H         1 1N3299   0.0000
    43 H13     21.6806   9.8572  61.7553   H         1 1N3299   0.0000
    44 H14     20.9363   7.8441  59.1655   H         1 1N3299   0.0000
    45 H15     24.2081  10.6546  59.1842   H         1 1N3299   0.0000
    46 H16     22.4700  10.7721  58.8271   H         1 1N3299   0.0000
    47 H17     22.7755   9.1529  57.1081   H         1 1N3299   0.0000
    48 H18     23.7620  10.4623  56.8643   H         1 1N3299   0.0000
    49 H19     28.1341   7.7997  61.8043   H         1 1N3299   0.0000
    50 H20     27.4317   9.3405  61.2613   H         1 1N3299   0.0000
    51 H21     26.1704   6.6361  60.7642   H         1 1N3299   0.0000
    52 H22     27.2437   7.4642  59.6133   H         1 1N3299   0.0000
    53 H23     25.5834   9.1661  59.3206   H         1 1N3299   0.0000
@<TRIPOS>BOND
     1     1     2    1
     2     2     3    1
     3     3     4   ar
     4     3     8   ar
     5     4     5   ar
     6     5     6   ar
     7     6     7   ar
     8     6     9    1
     9     7     8   ar
    10     9    10    1
    11     9    13    2
    12    10    11    1
    13    11    12   ar
    14    11    17   ar
    15    12    13    1
    16    12    14   ar
    17    14    15   ar
    18    14    19    1
    19    15    16   ar
    20    15    18    1
    21    16    17   ar
    22    19    20    1
    23    20    21    1
    24    21    22    1
    25    22    23    1
    26    23    24   am
    27    24    25    2
    28    24    26    1
    29    26    27    1
    30    26    28    1
    31    26    29    1
    32    27    28    2
    33    29    30    1
    34     8    31    1
    35     1    32    1
    36     1    33    1
    37     1    34    1
    38    16    35    1
    39     4    36    1
    40     5    37    1
    41     7    38    1
    42    19    39    1
    43    20    40    1
    44    20    41    1
    45    10    42    1
    46    27    43    1
    47    28    44    1
    48    29    45    1
    49    29    46    1
    50    30    47    1
    51    30    48    1
    52    21    49    1
    53    21    50    1
    54    22    51    1
    55    22    52    1
    56    23    53    1
@<TRIPOS>SUBSTRUCTURE
     1 1N3299      1 GROUP             0 A     1N3     0  
@<TRIPOS>SET
CCDC_LIGAND STATIC ATOMS
53 1 2 3 4 5 6 7 8 9 \
10 11 12 13 14 15 16 17 18 19 \
20 21 22 23 24 25 26 27 28 29 \
30 31 32 33 34 35 36 37 38 39 \
40 41 42 43 44 45 46 47 48 49 \
50 51 52 53 
