@<TRIPOS>MOLECULE
A:5SC501
    43    46     1     0     1
SMALL
NO_CHARGES
****
Generated from the CSD

@<TRIPOS>ATOM
     1 C01     26.4495   4.2304  63.8619   C.2       1 5SC501   0.0000
     2 C02     26.8823   5.5324  63.7422   C.2       1 5SC501   0.0000
     3 N03     27.9956   5.6249  64.4707   N.pl3     1 5SC501   0.0000
     4 N04     28.3127   4.4462  65.1005   N.2       1 5SC501   0.0000
     5 C05     27.3792   3.5884  64.7188   C.2       1 5SC501   0.0000
     6 N06     26.3653   6.5758  63.0012   N.2       1 5SC501   0.0000
     7 C07     27.0717   7.6787  63.0275   C.2       1 5SC501   0.0000
     8 C08     28.3102   7.7660  63.6865   C.2       1 5SC501   0.0000
     9 C09     28.7833   6.7134  64.4224   C.2       1 5SC501   0.0000
    10 N10     29.9897   6.6275  65.0752   N.pl3     1 5SC501   0.0000
    11 C11     26.5882   8.8301  62.2715   C.ar      1 5SC501   0.0000
    12 C12     31.0940   7.5853  64.7293   C.3       1 5SC501   0.0000
    13 C13     31.2563   8.6213  65.8426   C.ar      1 5SC501   0.0000
    14 C14     31.2890   8.2587  67.1637   C.ar      1 5SC501   0.0000
    15 N15     31.4178   9.2163  68.2628   N.ar      1 5SC501   0.0000
    16 C16     31.5229  10.6166  67.8700   C.ar      1 5SC501   0.0000
    17 C17     31.4990  10.9992  66.5507   C.ar      1 5SC501   0.0000
    18 C18     31.3732  10.0194  65.5238   C.ar      1 5SC501   0.0000
    19 C19     26.2979   8.7386  60.8886   C.ar      1 5SC501   0.0000
    20 C20     25.8441   9.8921  60.2166   C.ar      1 5SC501   0.0000
    21 C21     25.7160  11.0848  60.8904   C.ar      1 5SC501   0.0000
    22 C22     25.9693  11.1769  62.2572   C.ar      1 5SC501   0.0000
    23 C23     26.4279  10.0486  62.9469   C.ar      1 5SC501   0.0000
    24 BR24    24.9872   3.4337  62.9999   Br        1 5SC501   0.0000
    25 C25     26.4388   7.4439  60.1140   C.3       1 5SC501   0.0000
    26 O26     31.3788   8.8338  69.5288   O.3       1 5SC501   0.0000
    27 H1      32.1164   8.1924  69.7037   H         1 5SC501   0.0000
    28 H2      25.7838   6.6891  60.5464   H         1 5SC501   0.0000
    29 H3      26.1629   7.6113  59.0739   H         1 5SC501   0.0000
    30 H4      27.4712   7.1009  60.1650   H         1 5SC501   0.0000
    31 H5      26.6604  10.1171  64.0086   H         1 5SC501   0.0000
    32 H6      25.8121  12.1172  62.7837   H         1 5SC501   0.0000
    33 H7      25.4101  11.9756  60.3437   H         1 5SC501   0.0000
    34 H8      25.5936   9.8387  59.1582   H         1 5SC501   0.0000
    35 H9      31.3653  10.3338  64.4812   H         1 5SC501   0.0000
    36 H10     31.5765  12.0535  66.2892   H         1 5SC501   0.0000
    37 H11     31.6228  11.3783  68.6418   H         1 5SC501   0.0000
    38 H12     27.3322   2.5426  65.0191   H         1 5SC501   0.0000
    39 H13     31.2152   7.2003  67.4090   H         1 5SC501   0.0000
    40 H14     28.8985   8.6793  63.6109   H         1 5SC501   0.0000
    41 H15     30.1340   5.9196  65.7882   H         1 5SC501   0.0000
    42 H16     30.8519   8.0931  63.7968   H         1 5SC501   0.0000
    43 H17     32.0256   7.0340  64.6111   H         1 5SC501   0.0000
@<TRIPOS>BOND
     1     1     2    2
     2     1     5    1
     3     1    24    1
     4     2     3    1
     5     2     6    1
     6     3     4    1
     7     3     9    1
     8     4     5    2
     9     6     7    2
    10     7     8    1
    11     7    11    1
    12     8     9    2
    13     9    10    1
    14    10    12    1
    15    11    19   ar
    16    11    23   ar
    17    12    13    1
    18    13    14   ar
    19    13    18   ar
    20    14    15   ar
    21    15    16   ar
    22    15    26    1
    23    16    17   ar
    24    17    18   ar
    25    19    20   ar
    26    19    25    1
    27    20    21   ar
    28    21    22   ar
    29    22    23   ar
    30    26    27    1
    31    25    28    1
    32    25    29    1
    33    25    30    1
    34    23    31    1
    35    22    32    1
    36    21    33    1
    37    20    34    1
    38    18    35    1
    39    17    36    1
    40    16    37    1
    41     5    38    1
    42    14    39    1
    43     8    40    1
    44    10    41    1
    45    12    42    1
    46    12    43    1
@<TRIPOS>SUBSTRUCTURE
     1 5SC501      1 GROUP             0 A     5SC     0  
@<TRIPOS>SET
CCDC_LIGAND STATIC ATOMS
43 1 2 3 4 5 6 7 8 9 \
10 11 12 13 14 15 16 17 18 19 \
20 21 22 23 24 25 26 27 28 29 \
30 31 32 33 34 35 36 37 38 39 \
40 41 42 43 
