@<TRIPOS>MOLECULE
A:MTZ1297
    46    49     1     0     1
SMALL
NO_CHARGES
****
Generated from the CSD

@<TRIPOS>ATOM
     1 C14     32.2233  11.3673  63.5595   C.3       1 MTZ1297   0.0000
     2 C15     32.1512  12.8296  64.0250   C.3       1 MTZ1297   0.0000
     3 O       31.3808  13.6724  63.1237   O.3       1 MTZ1297   0.0000
     4 C16     30.0221  13.2192  62.9160   C.3       1 MTZ1297   0.0000
     5 C17     29.9707  11.7659  62.4211   C.3       1 MTZ1297   0.0000
     6 N5      30.8558  10.8879  63.2338   N.pl3     1 MTZ1297   0.0000
     7 C11     30.3726   9.6795  63.7721   C.ar      1 MTZ1297   0.0000
     8 C12     31.1495   8.9981  64.7021   C.ar      1 MTZ1297   0.0000
     9 C13     30.6874   7.8167  65.2647   C.ar      1 MTZ1297   0.0000
    10 C10     29.1124   9.1887  63.4324   C.ar      1 MTZ1297   0.0000
    11 C9      28.6454   8.0115  64.0107   C.ar      1 MTZ1297   0.0000
    12 C8      29.4376   7.3143  64.9216   C.ar      1 MTZ1297   0.0000
    13 N4      29.0221   6.1913  65.5166   N.pl3     1 MTZ1297   0.0000
    14 C5      28.1084   5.3750  65.0025   C.ar      1 MTZ1297   0.0000
    15 N2      27.2185   5.8341  64.1059   N.ar      1 MTZ1297   0.0000
    16 N3      28.0766   4.0906  65.3915   N.ar      1 MTZ1297   0.0000
    17 C6      27.1893   3.2434  64.8866   C.ar      1 MTZ1297   0.0000
    18 C7      26.2541   3.6839  63.9559   C.ar      1 MTZ1297   0.0000
    19 C4      26.2781   5.0262  63.5801   C.ar      1 MTZ1297   0.0000
    20 C3      25.4097   5.5134  62.6026   C.2       1 MTZ1297   0.0000
    21 S       25.4325   7.0761  61.9069   S.3       1 MTZ1297   0.0000
    22 C1      24.4538   4.7743  61.9093   C.2       1 MTZ1297   0.0000
    23 C2      24.1716   3.3095  62.2338   C.3       1 MTZ1297   0.0000
    24 N1      23.7808   5.4542  60.9636   N.2       1 MTZ1297   0.0000
    25 C       24.1727   6.7286  60.8052   C.2       1 MTZ1297   0.0000
    26 N       23.6571   7.5975  59.9303   N.pl3     1 MTZ1297   0.0000
    27 H1      32.6446  10.7530  64.3539   H         1 MTZ1297   0.0000
    28 H2      32.8536  11.2981  62.6741   H         1 MTZ1297   0.0000
    29 H3      33.1641  13.2243  64.0894   H         1 MTZ1297   0.0000
    30 H4      31.6871  12.8584  65.0098   H         1 MTZ1297   0.0000
    31 H5      22.9078   7.3086  59.3095   H         1 MTZ1297   0.0000
    32 H6      24.0149   8.5464  59.8865   H         1 MTZ1297   0.0000
    33 H7      23.8416   3.2239  63.2681   H         1 MTZ1297   0.0000
    34 H8      23.3923   2.9346  61.5719   H         1 MTZ1297   0.0000
    35 H9      25.0796   2.7250  62.0930   H         1 MTZ1297   0.0000
    36 H10     25.5223   2.9981  63.5317   H         1 MTZ1297   0.0000
    37 H11     27.1930   2.2009  65.2014   H         1 MTZ1297   0.0000
    38 H12     29.4289   5.9479  66.4141   H         1 MTZ1297   0.0000
    39 H13     29.5469  13.8602  62.1748   H         1 MTZ1297   0.0000
    40 H14     29.4800  13.2895  63.8578   H         1 MTZ1297   0.0000
    41 H15     30.2951  11.7330  61.3821   H         1 MTZ1297   0.0000
    42 H16     28.9467  11.4023  62.4934   H         1 MTZ1297   0.0000
    43 H17     32.1229   9.3924  64.9899   H         1 MTZ1297   0.0000
    44 H18     31.3083   7.2794  65.9801   H         1 MTZ1297   0.0000
    45 H19     28.4938   9.7259  62.7150   H         1 MTZ1297   0.0000
    46 H20     27.6577   7.6339  63.7504   H         1 MTZ1297   0.0000
@<TRIPOS>BOND
     1     1     2    1
     2     1     6    1
     3     2     3    1
     4     3     4    1
     5     4     5    1
     6     5     6    1
     7     6     7    1
     8     7     8   ar
     9     7    10   ar
    10     8     9   ar
    11     9    12   ar
    12    10    11   ar
    13    11    12   ar
    14    12    13    1
    15    13    14    1
    16    14    15   ar
    17    14    16   ar
    18    15    19   ar
    19    16    17   ar
    20    17    18   ar
    21    18    19   ar
    22    19    20    1
    23    20    21    1
    24    20    22    2
    25    21    25    1
    26    22    23    1
    27    22    24    1
    28    24    25    2
    29    25    26    1
    30     1    27    1
    31     1    28    1
    32     2    29    1
    33     2    30    1
    34    26    31    1
    35    26    32    1
    36    23    33    1
    37    23    34    1
    38    23    35    1
    39    18    36    1
    40    17    37    1
    41    13    38    1
    42     4    39    1
    43     4    40    1
    44     5    41    1
    45     5    42    1
    46     8    43    1
    47     9    44    1
    48    10    45    1
    49    11    46    1
@<TRIPOS>SUBSTRUCTURE
     1 MTZ1297     1 GROUP             0 A     MTZ     0  
@<TRIPOS>SET
CCDC_LIGAND STATIC ATOMS
46 1 2 3 4 5 6 7 8 9 \
10 11 12 13 14 15 16 17 18 19 \
20 21 22 23 24 25 26 27 28 29 \
30 31 32 33 34 35 36 37 38 39 \
40 41 42 43 44 45 46 
