@<TRIPOS>MOLECULE
A:I73301
    57    60     1     0     1
SMALL
NO_CHARGES
****
Generated from the CSD

@<TRIPOS>ATOM
     1 O1      26.0856   9.6144  58.4149   O.3       1 I73301   0.0000
     2 C42     26.0529   9.0095  59.7630   C.3       1 I73301   0.0000
     3 C43     25.0965   7.8199  59.7262   C.3       1 I73301   0.0000
     4 N44     23.7217   8.2918  59.4627   N.3       1 I73301   0.0000
     5 C45     23.1640   9.2809  60.3834   C.3       1 I73301   0.0000
     6 C46     24.1573  10.4582  60.5752   C.3       1 I73301   0.0000
     7 C41     25.6074  10.0258  60.8415   C.3       1 I73301   0.0000
     8 C40     25.6644   9.5291  62.3038   C.3       1 I73301   0.0000
     9 N18     26.9950   9.2916  62.8768   N.pl3     1 I73301   0.0000
    10 C5      27.3600   8.1169  63.4715   C.2       1 I73301   0.0000
    11 C4      28.5961   7.9595  64.1200   C.2       1 I73301   0.0000
    12 C3      29.0058   6.7367  64.7410   C.2       1 I73301   0.0000
    13 N2      28.1496   5.7054  64.7092   N.pl3     1 I73301   0.0000
    14 N1      28.2986   4.3938  65.2338   N.2       1 I73301   0.0000
    15 C9      27.1437   3.7195  64.8877   C.2       1 I73301   0.0000
    16 C8      26.3643   4.6946  64.2256   C.2       1 I73301   0.0000
    17 C26     25.0714   4.7447  63.4698   C.2       1 I73301   0.0000
    18 C28     25.0128   3.8796  62.2005   C.3       1 I73301   0.0000
    19 C27     23.7551   5.0945  64.1620   C.3       1 I73301   0.0000
    20 C7      27.0006   5.8903  64.0804   C.2       1 I73301   0.0000
    21 N6      26.5354   7.0375  63.4580   N.2       1 I73301   0.0000
    22 N10     30.2123   6.6323  65.3532   N.2       1 I73301   0.0000
    23 C11     31.2918   7.5772  64.9575   C.3       1 I73301   0.0000
    24 C12     31.4152   8.7290  65.9598   C.ar      1 I73301   0.0000
    25 C17     31.1483  10.0475  65.5912   C.ar      1 I73301   0.0000
    26 C16     31.2490  11.1011  66.5302   C.ar      1 I73301   0.0000
    27 C15     31.6136  10.8234  67.8699   C.ar      1 I73301   0.0000
    28 C14     31.8654   9.4959  68.2246   C.ar      1 I73301   0.0000
    29 C13     31.7639   8.4723  67.2774   C.ar      1 I73301   0.0000
    30 H1      31.6955  11.6234  68.6043   H         1 I73301   0.0000
    31 H2      32.1438   9.2557  69.2497   H         1 I73301   0.0000
    32 H3      31.9640   7.4462  67.5824   H         1 I73301   0.0000
    33 H4      23.8270   6.0904  64.5967   H         1 I73301   0.0000
    34 H5      22.9454   5.0738  63.4341   H         1 I73301   0.0000
    35 H6      23.5546   4.3687  64.9487   H         1 I73301   0.0000
    36 H7      31.0637   7.9852  63.9739   H         1 I73301   0.0000
    37 H8      32.2376   7.0389  64.9167   H         1 I73301   0.0000
    38 H9      30.8581  10.2693  64.5653   H         1 I73301   0.0000
    39 H10     31.0462  12.1258  66.2225   H         1 I73301   0.0000
    40 H11     25.1736   2.8356  62.4650   H         1 I73301   0.0000
    41 H12     24.0361   3.9890  61.7314   H         1 I73301   0.0000
    42 H13     25.7872   4.2015  61.5058   H         1 I73301   0.0000
    43 H14     29.2761   8.8096  64.1519   H         1 I73301   0.0000
    44 H15     26.8922   2.6777  65.0806   H         1 I73301   0.0000
    45 H16     25.1242   7.3039  60.6848   H         1 I73301   0.0000
    46 H17     25.4014   7.1350  58.9364   H         1 I73301   0.0000
    47 H18     23.8189  11.0555  61.4206   H         1 I73301   0.0000
    48 H19     24.1433  11.0667  59.6721   H         1 I73301   0.0000
    49 H20     27.6797  10.0393  62.8287   H         1 I73301   0.0000
    50 H21     25.1134   8.5911  62.3536   H         1 I73301   0.0000
    51 H22     25.1685  10.2748  62.9234   H         1 I73301   0.0000
    52 H23     23.1121   7.4804  59.4810   H         1 I73301   0.0000
    53 H24     22.9757   8.8091  61.3467   H         1 I73301   0.0000
    54 H25     22.2285   9.6626  59.9771   H         1 I73301   0.0000
    55 H26     25.1732   9.9166  58.1655   H         1 I73301   0.0000
    56 H27     26.2429  10.9063  60.7588   H         1 I73301   0.0000
    57 H28     27.0506   8.6500  60.0105   H         1 I73301   0.0000
@<TRIPOS>BOND
     1     1     2    1
     2     2     3    1
     3     2     7    1
     4     3     4    1
     5     4     5    1
     6     5     6    1
     7     6     7    1
     8     7     8    1
     9     8     9    1
    10     9    10    1
    11    10    11    2
    12    10    21    1
    13    11    12    1
    14    12    13    1
    15    12    22    2
    16    13    14    1
    17    13    20    1
    18    14    15    2
    19    15    16    1
    20    16    17    2
    21    16    20    1
    22    17    18    1
    23    17    19    1
    24    20    21    2
    25    22    23    1
    26    23    24    1
    27    24    25   ar
    28    24    29   ar
    29    25    26   ar
    30    26    27   ar
    31    27    28   ar
    32    28    29   ar
    33    27    30    1
    34    28    31    1
    35    29    32    1
    36    19    33    1
    37    19    34    1
    38    19    35    1
    39    23    36    1
    40    23    37    1
    41    25    38    1
    42    26    39    1
    43    18    40    1
    44    18    41    1
    45    18    42    1
    46    11    43    1
    47    15    44    1
    48     3    45    1
    49     3    46    1
    50     6    47    1
    51     6    48    1
    52     9    49    1
    53     8    50    1
    54     8    51    1
    55     4    52    1
    56     5    53    1
    57     5    54    1
    58     1    55    1
    59     7    56    1
    60     2    57    1
@<TRIPOS>SUBSTRUCTURE
     1 I73301      1 GROUP             0 A     I73     0  
@<TRIPOS>SET
CCDC_LIGAND STATIC ATOMS
57 1 2 3 4 5 6 7 8 9 \
10 11 12 13 14 15 16 17 18 19 \
20 21 22 23 24 25 26 27 28 29 \
30 31 32 33 34 35 36 37 38 39 \
40 41 42 43 44 45 46 47 48 49 \
50 51 52 53 54 55 56 57 
