@<TRIPOS>MOLECULE
A:Z19486
    21    22     1     0     1
SMALL
NO_CHARGES
****
Generated from the CSD

@<TRIPOS>ATOM
     1 N1      28.5766   4.2050  65.5848   N.2       1 Z19486   0.0000
     2 N2      27.6427   3.3510  65.0907   N.pl3     1 Z19486   0.0000
     3 C3      26.7638   3.9385  64.1980   C.ar      1 Z19486   0.0000
     4 C4      27.2073   5.3151  64.1288   C.ar      1 Z19486   0.0000
     5 C5      28.3429   5.3774  65.0302   C.2       1 Z19486   0.0000
     6 C6      29.1221   6.6384  65.2686   C.2       1 Z19486   0.0000
     7 N7      30.1342   6.5258  66.1309   N.am      1 Z19486   0.0000
     8 N8      30.9272   7.6205  66.4505   N.3       1 Z19486   0.0000
     9 O9      28.8312   7.6993  64.7043   O.2       1 Z19486   0.0000
    10 C10     25.6487   3.4547  63.4429   C.ar      1 Z19486   0.0000
    11 C11     24.9433   4.3577  62.5844   C.ar      1 Z19486   0.0000
    12 C12     25.3552   5.7256  62.4939   C.ar      1 Z19486   0.0000
    13 C13     26.4765   6.2014  63.2579   C.ar      1 Z19486   0.0000
    14 H1      24.0945   4.0043  62.0009   H         1 Z19486   0.0000
    15 H2      24.8155   6.4108  61.8418   H         1 Z19486   0.0000
    16 H3      30.3499   8.3490  66.8582   H         1 Z19486   0.0000
    17 H4      31.6388   7.3396  67.1175   H         1 Z19486   0.0000
    18 H5      25.3406   2.4130  63.5201   H         1 Z19486   0.0000
    19 H6      30.3275   5.6265  66.5600   H         1 Z19486   0.0000
    20 H7      26.7775   7.2449  63.1776   H         1 Z19486   0.0000
    21 H8      27.5942   2.3715  65.3524   H         1 Z19486   0.0000
@<TRIPOS>BOND
     1     1     2    1
     2     1     5    2
     3     2     3    1
     4     3     4   ar
     5     3    10   ar
     6     4     5    1
     7     4    13   ar
     8     5     6    1
     9     6     7   am
    10     6     9    2
    11     7     8    1
    12    10    11   ar
    13    11    12   ar
    14    12    13   ar
    15    11    14    1
    16    12    15    1
    17     8    16    1
    18     8    17    1
    19    10    18    1
    20     7    19    1
    21    13    20    1
    22     2    21    1
@<TRIPOS>SUBSTRUCTURE
     1 Z19486      1 GROUP             0 A     Z19     0  
@<TRIPOS>SET
CCDC_LIGAND STATIC ATOMS
21 1 2 3 4 5 6 7 8 9 \
10 11 12 13 14 15 16 17 18 19 \
20 21 
