@<TRIPOS>MOLECULE
A:HGQ402
    12    12     1     0     1
SMALL
NO_CHARGES
****
Generated from the CSD

@<TRIPOS>ATOM
     1 C4      35.1924   5.8638  28.9279   C.2       1 HGQ402   0.0000
     2 C5      34.8170   4.9951  29.8598   C.2       1 HGQ402   0.0000
     3 N1      33.6586   5.1347  30.5269   N.am      1 HGQ402   0.0000
     4 C3      34.2901   6.8726  28.5917   C.2       1 HGQ402   0.0000
     5 O1      31.6884   6.0101  30.8772   O.2       1 HGQ402   0.0000
     6 C1      32.7019   6.0794  30.2260   C.2       1 HGQ402   0.0000
     7 C2      33.0663   7.0635  29.2174   C.2       1 HGQ402   0.0000
     8 BR1     34.7752   7.9378  27.1569   Br        1 HGQ402   0.0000
     9 H1      36.1661   5.7912  28.4456   H         1 HGQ402   0.0000
    10 H2      35.4634   4.1492  30.0889   H         1 HGQ402   0.0000
    11 H3      33.4770   4.5043  31.3014   H         1 HGQ402   0.0000
    12 H4      32.4163   7.9010  28.9682   H         1 HGQ402   0.0000
@<TRIPOS>BOND
     1     1     2    2
     2     1     4    1
     3     2     3    1
     4     3     6   am
     5     4     7    2
     6     4     8    1
     7     5     6    2
     8     6     7    1
     9     1     9    1
    10     2    10    1
    11     3    11    1
    12     7    12    1
@<TRIPOS>SUBSTRUCTURE
     1 HGQ402      1 GROUP             0 A     HGQ     0  
@<TRIPOS>SET
CCDC_LIGAND STATIC ATOMS
12 1 2 3 4 5 6 7 8 9 \
10 11 12 
