@<TRIPOS>MOLECULE
A:D6I1300
    52    55     1     0     1
SMALL
NO_CHARGES
****
Generated from the CSD

@<TRIPOS>ATOM
     1 C28     25.1645   8.5357  60.3227   C.ar      1 D6I1300   0.0000
     2 C27     26.3690   8.5002  60.9890   C.ar      1 D6I1300   0.0000
     3 C29     24.2196   7.5381  60.5017   C.ar      1 D6I1300   0.0000
     4 C26     26.6678   7.4710  61.8691   C.ar      1 D6I1300   0.0000
     5 C9      31.8070   8.6667  66.1197   C.ar      1 D6I1300   0.0000
     6 C10     31.2911   7.4002  66.2883   C.ar      1 D6I1300   0.0000
     7 C16     27.6670   5.7086  64.2611   C.ar      1 D6I1300   0.0000
     8 C13     30.1286   9.0676  64.4841   C.ar      1 D6I1300   0.0000
     9 C19     27.5950   3.1029  64.8060   C.ar      1 D6I1300   0.0000
    10 C22     24.4708   4.7230  62.5987   C.2       1 D6I1300   0.0000
    11 C24     24.4963   6.4950  61.3840   C.ar      1 D6I1300   0.0000
    12 C25     25.7189   6.4735  62.0482   C.ar      1 D6I1300   0.0000
    13 C8      31.2078   9.5200  65.2192   C.ar      1 D6I1300   0.0000
    14 C17     26.7238   4.8482  63.6972   C.ar      1 D6I1300   0.0000
    15 C11     30.1833   7.0240  65.5324   C.ar      1 D6I1300   0.0000
    16 C15     28.6143   5.0939  65.0837   C.ar      1 D6I1300   0.0000
    17 C1      32.0267  15.6363  66.5579   C.3       1 D6I1300   0.0000
    18 C3      30.7429  14.2379  67.9917   C.3       1 D6I1300   0.0000
    19 C5      31.4860  13.1033  64.5684   C.3       1 D6I1300   0.0000
    20 C4      31.7857  13.3070  66.0408   C.3       1 D6I1300   0.0000
    21 C6      30.9956  11.7197  64.2398   C.3       1 D6I1300   0.0000
    22 N12     29.6119   7.8401  64.6387   N.ar      1 D6I1300   0.0000
    23 N18     26.6434   3.5477  63.9834   N.ar      1 D6I1300   0.0000
    24 N20     28.5849   3.7890  65.3736   N.ar      1 D6I1300   0.0000
    25 N23     23.7336   5.3902  61.7430   N.2       1 D6I1300   0.0000
    26 N21     25.6795   5.3346  62.8581   N.pl3     1 D6I1300   0.0000
    27 N14     29.6436   5.7657  65.7181   N.pl3     1 D6I1300   0.0000
    28 N2      31.1410  14.4844  66.6146   N.3       1 D6I1300   0.0000
    29 O7      31.7147  10.7856  65.0526   O.3       1 D6I1300   0.0000
    30 H1      24.9512   9.3605  59.6444   H         1 D6I1300   0.0000
    31 H2      27.0978   9.2921  60.8223   H         1 D6I1300   0.0000
    32 H3      23.2747   7.5687  59.9612   H         1 D6I1300   0.0000
    33 H4      27.6167   7.4459  62.4028   H         1 D6I1300   0.0000
    34 H5      32.6766   8.9888  66.6905   H         1 D6I1300   0.0000
    35 H6      31.7405   6.7073  66.9982   H         1 D6I1300   0.0000
    36 H7      27.6646   6.7813  64.0736   H         1 D6I1300   0.0000
    37 H8      29.6797   9.7349  63.7498   H         1 D6I1300   0.0000
    38 H9      27.5571   2.0410  65.0441   H         1 D6I1300   0.0000
    39 H10     24.1609   3.7846  63.0563   H         1 D6I1300   0.0000
    40 H11     32.9130  15.4426  67.1602   H         1 D6I1300   0.0000
    41 H12     32.3218  15.8167  65.5253   H         1 D6I1300   0.0000
    42 H13     31.5085  16.5120  66.9457   H         1 D6I1300   0.0000
    43 H14     30.2231  15.1119  68.3813   H         1 D6I1300   0.0000
    44 H15     30.0800  13.3747  68.0291   H         1 D6I1300   0.0000
    45 H16     31.6277  14.0425  68.5959   H         1 D6I1300   0.0000
    46 H17     32.3978  13.2888  64.0026   H         1 D6I1300   0.0000
    47 H18     30.7217  13.8194  64.2702   H         1 D6I1300   0.0000
    48 H19     32.8629  13.4123  66.1608   H         1 D6I1300   0.0000
    49 H20     31.4439  12.4282  66.5857   H         1 D6I1300   0.0000
    50 H21     31.1736  11.5058  63.1870   H         1 D6I1300   0.0000
    51 H22     29.9295  11.6469  64.4498   H         1 D6I1300   0.0000
    52 H23     30.0861   5.2336  66.4606   H         1 D6I1300   0.0000
@<TRIPOS>BOND
     1     1     2   ar
     2     1     3   ar
     3     2     4   ar
     4     3    11   ar
     5     4    12   ar
     6     5     6   ar
     7     5    13   ar
     8     6    15   ar
     9     7    14   ar
    10     7    16   ar
    11     8    13   ar
    12     8    22   ar
    13     9    23   ar
    14     9    24   ar
    15    10    25    2
    16    10    26    1
    17    11    12   ar
    18    11    25    1
    19    12    26    1
    20    13    29    1
    21    14    23   ar
    22    14    26    1
    23    15    22   ar
    24    15    27    1
    25    16    24   ar
    26    16    27    1
    27    17    28    1
    28    18    28    1
    29    19    20    1
    30    19    21    1
    31    20    28    1
    32    21    29    1
    33     1    30    1
    34     2    31    1
    35     3    32    1
    36     4    33    1
    37     5    34    1
    38     6    35    1
    39     7    36    1
    40     8    37    1
    41     9    38    1
    42    10    39    1
    43    17    40    1
    44    17    41    1
    45    17    42    1
    46    18    43    1
    47    18    44    1
    48    18    45    1
    49    19    46    1
    50    19    47    1
    51    20    48    1
    52    20    49    1
    53    21    50    1
    54    21    51    1
    55    27    52    1
@<TRIPOS>SUBSTRUCTURE
     1 D6I1300     1 GROUP             0 A     D6I     0  
@<TRIPOS>SET
CCDC_LIGAND STATIC ATOMS
52 1 2 3 4 5 6 7 8 9 \
10 11 12 13 14 15 16 17 18 19 \
20 21 22 23 24 25 26 27 28 29 \
30 31 32 33 34 35 36 37 38 39 \
40 41 42 43 44 45 46 47 48 49 \
50 51 52 
