@<TRIPOS>MOLECULE
A:42K301
    36    39     1     0     1
SMALL
NO_CHARGES
****
Generated from the CSD

@<TRIPOS>ATOM
     1 N1      26.7702   3.5046  64.7259   N.am      1 42K301   0.0000
     2 N2      24.2205   6.5211  60.9804   N.2       1 42K301   0.0000
     3 N3      24.9670   7.5134  61.1137   N.2       1 42K301   0.0000
     4 N4      25.8766   7.3332  61.9598   N.pl3     1 42K301   0.0000
     5 N5      28.3439   6.6409  64.3738   N.2       1 42K301   0.0000
     6 N6      29.3844   6.6598  65.0701   N.pl3     1 42K301   0.0000
     7 N7      33.0556  12.1224  63.8713   N.pl3     1 42K301   0.0000
     8 OAB     28.6011   4.2047  65.9061   O.2       1 42K301   0.0000
     9 OAC     33.7636  11.3946  66.2542   O.2       1 42K301   0.0000
    10 OAD     34.6476  10.2506  64.3159   O.2       1 42K301   0.0000
    11 CAE     30.2526   8.6208  63.9873   C.ar      1 42K301   0.0000
    12 CAF     31.2898   7.7429  65.9981   C.ar      1 42K301   0.0000
    13 CAG     31.2133   9.6394  63.9395   C.ar      1 42K301   0.0000
    14 CAH     32.2456   8.7576  65.9575   C.ar      1 42K301   0.0000
    15 CAI     24.1616   4.2920  62.1374   C.ar      1 42K301   0.0000
    16 CAJ     24.8469   3.5328  63.1149   C.ar      1 42K301   0.0000
    17 CAQ     30.2684   7.6860  65.0389   C.ar      1 42K301   0.0000
    18 CAR     32.2042   9.6968  64.9234   C.ar      1 42K301   0.0000
    19 CAS     27.6697   4.4158  65.1071   C.2       1 42K301   0.0000
    20 CAT     27.4860   5.5871  64.3739   C.2       1 42K301   0.0000
    21 CAU     24.6009   5.5860  61.8680   C.ar      1 42K301   0.0000
    22 CAV     25.9590   4.0623  63.8011   C.ar      1 42K301   0.0000
    23 CAW     25.7435   6.0995  62.4938   C.ar      1 42K301   0.0000
    24 CAX     26.3979   5.3670  63.5155   C.ar      1 42K301   0.0000
    25 SAY     33.4491  10.9160  64.8775   S.o2      1 42K301   0.0000
    26 H1      26.7071   2.5529  65.0729   H         1 42K301   0.0000
    27 H2      26.5963   8.0061  62.2035   H         1 42K301   0.0000
    28 H3      29.5734   5.8736  65.6835   H         1 42K301   0.0000
    29 H4      32.8206  11.9208  62.9046   H         1 42K301   0.0000
    30 H5      33.0440  13.0801  64.2072   H         1 42K301   0.0000
    31 H6      24.5099   2.5223  63.3410   H         1 42K301   0.0000
    32 H7      29.4930   8.5525  63.2100   H         1 42K301   0.0000
    33 H8      31.3370   6.9881  66.7816   H         1 42K301   0.0000
    34 H9      31.1881  10.3806  63.1421   H         1 42K301   0.0000
    35 H10     33.0167   8.8175  66.7241   H         1 42K301   0.0000
    36 H11     23.3080   3.8733  61.6065   H         1 42K301   0.0000
@<TRIPOS>BOND
     1     1    19   am
     2     1    22    1
     3     2     3    2
     4     2    21    1
     5     3     4    1
     6     4    23    1
     7     5     6    1
     8     5    20    2
     9     6    17    1
    10     7    25    1
    11     8    19    2
    12     9    25    2
    13    10    25    2
    14    11    13   ar
    15    11    17   ar
    16    12    14   ar
    17    12    17   ar
    18    13    18   ar
    19    14    18   ar
    20    15    16   ar
    21    15    21   ar
    22    16    22   ar
    23    18    25    1
    24    19    20    1
    25    20    24    1
    26    21    23   ar
    27    22    24   ar
    28    23    24   ar
    29     1    26    1
    30     4    27    1
    31     6    28    1
    32     7    29    1
    33     7    30    1
    34    16    31    1
    35    11    32    1
    36    12    33    1
    37    13    34    1
    38    14    35    1
    39    15    36    1
@<TRIPOS>SUBSTRUCTURE
     1 42K301      1 GROUP             0 A     42K     0  
@<TRIPOS>SET
CCDC_LIGAND STATIC ATOMS
36 1 2 3 4 5 6 7 8 9 \
10 11 12 13 14 15 16 17 18 19 \
20 21 22 23 24 25 26 27 28 29 \
30 31 32 33 34 35 36 
