@<TRIPOS>MOLECULE
A:FRT1299
    56    58     1     0     1
SMALL
NO_CHARGES
****
Generated from the CSD

@<TRIPOS>ATOM
     1 C1      26.2293   5.1265  63.7181   C.ar      1 FRT1299   0.0000
     2 N2      27.2185   5.8191  64.3581   N.ar      1 FRT1299   0.0000
     3 C3      28.1083   5.1645  65.1232   C.ar      1 FRT1299   0.0000
     4 N4      28.1140   3.8451  65.3232   N.ar      1 FRT1299   0.0000
     5 C5      27.1657   3.1049  64.7217   C.ar      1 FRT1299   0.0000
     6 C6      26.1739   3.6887  63.8928   C.ar      1 FRT1299   0.0000
     7 N7      29.1049   6.0060  65.7459   N.pl3     1 FRT1299   0.0000
     8 C8      29.8847   7.1673  65.3656   C.ar      1 FRT1299   0.0000
     9 C9      29.7424   7.8407  64.1092   C.ar      1 FRT1299   0.0000
    10 C10     30.5388   8.9664  63.8031   C.ar      1 FRT1299   0.0000
    11 C11     31.4805   9.4186  64.7535   C.ar      1 FRT1299   0.0000
    12 C12     31.6468   8.7783  66.0040   C.ar      1 FRT1299   0.0000
    13 C13     30.8454   7.6496  66.3070   C.ar      1 FRT1299   0.0000
    14 S14     32.4622  10.7940  64.3754   S.o2      1 FRT1299   0.0000
    15 N15     31.5522  11.8096  63.2980   N.pl3     1 FRT1299   0.0000
    16 C16     31.0741  13.0409  63.9610   C.3       1 FRT1299   0.0000
    17 C17     30.2949  13.9206  62.9812   C.3       1 FRT1299   0.0000
    18 O18     29.8509  15.1131  63.6567   O.3       1 FRT1299   0.0000
    19 C19     29.1003  16.0283  62.8241   C.3       1 FRT1299   0.0000
    20 C20     25.2768   5.8336  62.8872   C.2       1 FRT1299   0.0000
    21 N21     25.4979   7.0356  62.1256   N.pl3     1 FRT1299   0.0000
    22 C22     24.1952   7.1585  61.5613   C.2       1 FRT1299   0.0000
    23 N23     23.2238   6.2388  61.8512   N.2       1 FRT1299   0.0000
    24 C24     23.9219   5.4083  62.6880   C.2       1 FRT1299   0.0000
    25 C25     26.7675   7.8784  61.9717   C.3       1 FRT1299   0.0000
    26 C26     27.2868   7.8770  60.5204   C.3       1 FRT1299   0.0000
    27 C27     26.5625   9.3298  62.4816   C.3       1 FRT1299   0.0000
    28 C28     23.7476   8.2811  60.6008   C.3       1 FRT1299   0.0000
    29 O29     32.7994  11.6030  65.7072   O.2       1 FRT1299   0.0000
    30 O30     33.7976  10.3324  63.6429   O.2       1 FRT1299   0.0000
    31 H1      26.2921   9.3092  63.5363   H         1 FRT1299   0.0000
    32 H2      27.4859   9.8930  62.3545   H         1 FRT1299   0.0000
    33 H3      25.7658   9.8056  61.9118   H         1 FRT1299   0.0000
    34 H4      31.3700  11.5833  62.3255   H         1 FRT1299   0.0000
    35 H5      27.5372   7.4220  62.5923   H         1 FRT1299   0.0000
    36 H6      23.4940   4.5209  63.1519   H         1 FRT1299   0.0000
    37 H7      26.5233   8.2876  59.8613   H         1 FRT1299   0.0000
    38 H8      28.1873   8.4860  60.4565   H         1 FRT1299   0.0000
    39 H9      27.5166   6.8563  60.2181   H         1 FRT1299   0.0000
    40 H10     31.9302  13.5986  64.3378   H         1 FRT1299   0.0000
    41 H11     30.4238  12.7694  64.7913   H         1 FRT1299   0.0000
    42 H12     30.9627   7.1456  67.2652   H         1 FRT1299   0.0000
    43 H13     29.4316  13.3718  62.6079   H         1 FRT1299   0.0000
    44 H14     30.9395  14.1942  62.1472   H         1 FRT1299   0.0000
    45 H15     28.2101  15.5280  62.4456   H         1 FRT1299   0.0000
    46 H16     28.8063  16.8964  63.4123   H         1 FRT1299   0.0000
    47 H17     29.7195  16.3493  61.9877   H         1 FRT1299   0.0000
    48 H18     24.3656   8.2598  59.7045   H         1 FRT1299   0.0000
    49 H19     22.7047   8.1295  60.3264   H         1 FRT1299   0.0000
    50 H20     23.8566   9.2458  61.0941   H         1 FRT1299   0.0000
    51 H21     32.3783   9.1466  66.7217   H         1 FRT1299   0.0000
    52 H22     29.3120   5.7068  66.6934   H         1 FRT1299   0.0000
    53 H23     29.0138   7.4817  63.3838   H         1 FRT1299   0.0000
    54 H24     30.4282   9.4781  62.8483   H         1 FRT1299   0.0000
    55 H25     27.1592   2.0268  64.8754   H         1 FRT1299   0.0000
    56 H26     25.4067   3.0850  63.4103   H         1 FRT1299   0.0000
@<TRIPOS>BOND
     1     1     2   ar
     2     1     6   ar
     3     1    20    1
     4     2     3   ar
     5     3     4   ar
     6     3     7    1
     7     4     5   ar
     8     5     6   ar
     9     7     8    1
    10     8     9   ar
    11     8    13   ar
    12     9    10   ar
    13    10    11   ar
    14    11    12   ar
    15    11    14    1
    16    12    13   ar
    17    14    15    1
    18    14    29    2
    19    14    30    2
    20    15    16    1
    21    16    17    1
    22    17    18    1
    23    18    19    1
    24    20    21    1
    25    20    24    2
    26    21    22    1
    27    21    25    1
    28    22    23    2
    29    22    28    1
    30    23    24    1
    31    25    26    1
    32    25    27    1
    33    27    31    1
    34    27    32    1
    35    27    33    1
    36    15    34    1
    37    25    35    1
    38    24    36    1
    39    26    37    1
    40    26    38    1
    41    26    39    1
    42    16    40    1
    43    16    41    1
    44    13    42    1
    45    17    43    1
    46    17    44    1
    47    19    45    1
    48    19    46    1
    49    19    47    1
    50    28    48    1
    51    28    49    1
    52    28    50    1
    53    12    51    1
    54     7    52    1
    55     9    53    1
    56    10    54    1
    57     5    55    1
    58     6    56    1
@<TRIPOS>SUBSTRUCTURE
     1 FRT1299     1 GROUP             0 A     FRT     0  
@<TRIPOS>SET
CCDC_LIGAND STATIC ATOMS
56 1 2 3 4 5 6 7 8 9 \
10 11 12 13 14 15 16 17 18 19 \
20 21 22 23 24 25 26 27 28 29 \
30 31 32 33 34 35 36 37 38 39 \
40 41 42 43 44 45 46 47 48 49 \
50 51 52 53 54 55 56 
