@<TRIPOS>MOLECULE
A:MTW1298
    43    46     1     0     1
SMALL
NO_CHARGES
****
Generated from the CSD

@<TRIPOS>ATOM
     1 C       26.0893  10.4833  61.0047   C.2       1 MTW1298   0.0000
     2 N1      25.2291  11.3797  61.4799   N.2       1 MTW1298   0.0000
     3 C1      24.0057  10.8695  61.3189   C.2       1 MTW1298   0.0000
     4 N2      24.1401   9.6821  60.7343   N.2       1 MTW1298   0.0000
     5 N       25.3411   9.4852  60.5382   N.pl3     1 MTW1298   0.0000
     6 C2      25.8926   8.2562  59.9432   C.3       1 MTW1298   0.0000
     7 C3      25.5314   7.0810  60.8580   C.ar      1 MTW1298   0.0000
     8 C4      26.3438   6.5891  61.8751   C.ar      1 MTW1298   0.0000
     9 C17     24.2690   6.5299  60.6953   C.ar      1 MTW1298   0.0000
    10 C18     23.8453   5.4517  61.4591   C.ar      1 MTW1298   0.0000
    11 C6      24.6792   4.9417  62.4455   C.ar      1 MTW1298   0.0000
    12 C5      25.9136   5.5340  62.6747   C.ar      1 MTW1298   0.0000
    13 C7      26.7225   4.9640  63.6537   C.ar      1 MTW1298   0.0000
    14 N3      27.6740   5.6928  64.2685   N.ar      1 MTW1298   0.0000
    15 C8      26.5540   3.6053  63.9365   C.ar      1 MTW1298   0.0000
    16 C9      27.4472   3.0352  64.8289   C.ar      1 MTW1298   0.0000
    17 N4      28.3626   3.8161  65.3971   N.ar      1 MTW1298   0.0000
    18 C10     28.5204   5.1298  65.1541   C.ar      1 MTW1298   0.0000
    19 N5      29.4832   5.8475  65.7520   N.pl3     1 MTW1298   0.0000
    20 C11     29.8177   7.1179  65.4619   C.ar      1 MTW1298   0.0000
    21 C14     29.0924   7.9408  64.5981   C.ar      1 MTW1298   0.0000
    22 C12     30.9761   7.6684  66.0089   C.ar      1 MTW1298   0.0000
    23 C13     31.4091   8.9526  65.6903   C.ar      1 MTW1298   0.0000
    24 C16     30.6637   9.7555  64.8292   C.ar      1 MTW1298   0.0000
    25 C15     29.4945   9.2421  64.2720   C.ar      1 MTW1298   0.0000
    26 N6      28.6982  10.0321  63.5331   N.pl3     1 MTW1298   0.0000
    27 O2      28.8376  10.4005  62.1460   O.2       1 MTW1298   0.0000
    28 O1      27.5430  10.4940  64.2169   O.2       1 MTW1298   0.0000
    29 H1      27.1762  10.5512  60.9984   H         1 MTW1298   0.0000
    30 H2      23.0684  11.3398  61.6126   H         1 MTW1298   0.0000
    31 H3      26.9752   8.3400  59.8599   H         1 MTW1298   0.0000
    32 H4      25.4635   8.0999  58.9546   H         1 MTW1298   0.0000
    33 H5      27.3234   7.0328  62.0467   H         1 MTW1298   0.0000
    34 H6      23.5953   6.9528  59.9516   H         1 MTW1298   0.0000
    35 H7      22.8657   5.0085  61.2862   H         1 MTW1298   0.0000
    36 H8      24.3664   4.0819  63.0360   H         1 MTW1298   0.0000
    37 H9      25.7575   3.0222  63.4767   H         1 MTW1298   0.0000
    38 H10     27.4012   1.9721  65.0601   H         1 MTW1298   0.0000
    39 H11     30.0073   5.3902  66.4912   H         1 MTW1298   0.0000
    40 H12     28.1741   7.5539  64.1589   H         1 MTW1298   0.0000
    41 H13     31.5616   7.0739  66.7088   H         1 MTW1298   0.0000
    42 H14     32.3364   9.3322  66.1168   H         1 MTW1298   0.0000
    43 H15     30.9898  10.7679  64.5956   H         1 MTW1298   0.0000
@<TRIPOS>BOND
     1     1     2    2
     2     1     5    1
     3     2     3    1
     4     3     4    2
     5     4     5    1
     6     5     6    1
     7     6     7    1
     8     7     8   ar
     9     7     9   ar
    10     8    12   ar
    11     9    10   ar
    12    10    11   ar
    13    11    12   ar
    14    12    13    1
    15    13    14   ar
    16    13    15   ar
    17    14    18   ar
    18    15    16   ar
    19    16    17   ar
    20    17    18   ar
    21    18    19    1
    22    19    20    1
    23    20    21   ar
    24    20    22   ar
    25    21    25   ar
    26    22    23   ar
    27    23    24   ar
    28    24    25   ar
    29    25    26    1
    30    26    27    2
    31    26    28    2
    32     1    29    1
    33     3    30    1
    34     6    31    1
    35     6    32    1
    36     8    33    1
    37     9    34    1
    38    10    35    1
    39    11    36    1
    40    15    37    1
    41    16    38    1
    42    19    39    1
    43    21    40    1
    44    22    41    1
    45    23    42    1
    46    24    43    1
@<TRIPOS>SUBSTRUCTURE
     1 MTW1298     1 GROUP             0 A     MTW     0  
@<TRIPOS>SET
CCDC_LIGAND STATIC ATOMS
43 1 2 3 4 5 6 7 8 9 \
10 11 12 13 14 15 16 17 18 19 \
20 21 22 23 24 25 26 27 28 29 \
30 31 32 33 34 35 36 37 38 39 \
40 41 42 43 
