@<TRIPOS>MOLECULE
A:X03299
    40    41     1     0     1
SMALL
NO_CHARGES
****
Generated from the CSD

@<TRIPOS>ATOM
     1 N1      28.6981   4.4741  65.6926   N.2       1 X03299   0.0000
     2 N2      27.6367   3.7044  65.1356   N.pl3     1 X03299   0.0000
     3 C3      26.9026   4.5260  64.3122   C.2       1 X03299   0.0000
     4 C4      27.4651   5.7851  64.3188   C.2       1 X03299   0.0000
     5 C5      28.6348   5.7299  65.2219   C.2       1 X03299   0.0000
     6 C6      29.5575   6.8411  65.5477   C.2       1 X03299   0.0000
     7 N7      30.5713   6.6371  66.4136   N.am      1 X03299   0.0000
     8 N8      31.4849   7.6877  66.7600   N.3       1 X03299   0.0000
     9 O9      29.3997   7.9594  65.0279   O.2       1 X03299   0.0000
    10 C10     25.6370   4.1751  63.4805   C.3       1 X03299   0.0000
    11 C11     25.0113   5.3996  62.6580   C.3       1 X03299   0.0000
    12 C12     26.0730   6.5291  62.1881   C.3       1 X03299   0.0000
    13 C13     26.8887   6.9611  63.4999   C.3       1 X03299   0.0000
    14 C14     25.4691   7.8414  61.3709   C.3       1 X03299   0.0000
    15 C15     26.0616   7.8756  59.8647   C.3       1 X03299   0.0000
    16 C16     25.6723   6.5926  59.2336   C.3       1 X03299   0.0000
    17 C17     25.8314   9.1783  62.1258   C.3       1 X03299   0.0000
    18 C18     23.9115   7.8019  61.2556   C.3       1 X03299   0.0000
    19 H1      27.4541   2.7222  65.3148   H         1 X03299   0.0000
    20 H2      30.6907   5.7191  66.8297   H         1 X03299   0.0000
    21 H3      30.9728   8.4563  67.1810   H         1 X03299   0.0000
    22 H4      32.1704   7.3358  67.4207   H         1 X03299   0.0000
    23 H5      24.8756   3.8020  64.1639   H         1 X03299   0.0000
    24 H6      25.9038   3.3924  62.7719   H         1 X03299   0.0000
    25 H7      24.2637   5.8808  63.2868   H         1 X03299   0.0000
    26 H8      24.5315   4.9968  61.7672   H         1 X03299   0.0000
    27 H9      26.7816   6.0397  61.5216   H         1 X03299   0.0000
    28 H10     27.7170   7.5966  63.1902   H         1 X03299   0.0000
    29 H11     26.2184   7.5271  64.1450   H         1 X03299   0.0000
    30 H12     27.1462   7.9699  59.8886   H         1 X03299   0.0000
    31 H13     25.6365   8.7118  59.3116   H         1 X03299   0.0000
    32 H14     24.5867   6.5074  59.2241   H         1 X03299   0.0000
    33 H15     26.0478   6.5620  58.2119   H         1 X03299   0.0000
    34 H16     26.0964   5.7655  59.8011   H         1 X03299   0.0000
    35 H17     26.9140   9.2734  62.1962   H         1 X03299   0.0000
    36 H18     25.4275  10.0268  61.5755   H         1 X03299   0.0000
    37 H19     25.4030   9.1576  63.1267   H         1 X03299   0.0000
    38 H20     23.4738   7.7947  62.2527   H         1 X03299   0.0000
    39 H21     23.5653   8.6807  60.7135   H         1 X03299   0.0000
    40 H22     23.6098   6.9029  60.7202   H         1 X03299   0.0000
@<TRIPOS>BOND
     1     1     2    1
     2     1     5    2
     3     2     3    1
     4     3     4    2
     5     3    10    1
     6     4     5    1
     7     4    13    1
     8     5     6    1
     9     6     7   am
    10     6     9    2
    11     7     8    1
    12    10    11    1
    13    11    12    1
    14    12    13    1
    15    12    14    1
    16    14    15    1
    17    14    17    1
    18    14    18    1
    19    15    16    1
    20     2    19    1
    21     7    20    1
    22     8    21    1
    23     8    22    1
    24    10    23    1
    25    10    24    1
    26    11    25    1
    27    11    26    1
    28    12    27    1
    29    13    28    1
    30    13    29    1
    31    15    30    1
    32    15    31    1
    33    16    32    1
    34    16    33    1
    35    16    34    1
    36    17    35    1
    37    17    36    1
    38    17    37    1
    39    18    38    1
    40    18    39    1
    41    18    40    1
@<TRIPOS>SUBSTRUCTURE
     1 X03299      1 GROUP             0 A     X03     0  
@<TRIPOS>SET
CCDC_LIGAND STATIC ATOMS
40 1 2 3 4 5 6 7 8 9 \
10 11 12 13 14 15 16 17 18 19 \
20 21 22 23 24 25 26 27 28 29 \
30 31 32 33 34 35 36 37 38 39 \
40 
