@<TRIPOS>MOLECULE
A:PY8299
    36    38     1     0     1
SMALL
NO_CHARGES
****
Generated from the CSD

@<TRIPOS>ATOM
     1 BR1     25.6051   4.2058  63.4973   Br        1 PY8299   0.0000
     2 C1      27.1560   4.7206  64.4744   C.ar      1 PY8299   0.0000
     3 C2      27.8852   3.7788  65.1881   C.ar      1 PY8299   0.0000
     4 N3      28.9625   4.1379  65.8603   N.ar      1 PY8299   0.0000
     5 C4      29.3770   5.4087  65.8754   C.ar      1 PY8299   0.0000
     6 N5      28.6896   6.3437  65.2022   N.ar      1 PY8299   0.0000
     7 C6      27.5921   6.0400  64.4889   C.ar      1 PY8299   0.0000
     8 N7      26.9270   6.9956  63.8328   N.pl3     1 PY8299   0.0000
     9 C8      27.5806   7.9126  62.8786   C.3       1 PY8299   0.0000
    10 C9      28.2042   9.1166  63.5978   C.3       1 PY8299   0.0000
    11 C10     29.7021   9.1773  63.2955   C.3       1 PY8299   0.0000
    12 N13     30.2796  10.3951  63.8912   N.pl3     1 PY8299   0.0000
    13 S14     31.7828  10.2176  64.5797   S.o2      1 PY8299   0.0000
    14 O14     32.1979  11.5577  65.1330   O.2       1 PY8299   0.0000
    15 O15     32.7884   9.7345  63.5847   O.2       1 PY8299   0.0000
    16 C15     31.7474   9.0604  65.8606   C.ar      1 PY8299   0.0000
    17 C20     31.1060   7.8401  65.6653   C.ar      1 PY8299   0.0000
    18 C16     32.3759   9.3605  67.0664   C.ar      1 PY8299   0.0000
    19 C17     32.3569   8.4391  68.1048   C.ar      1 PY8299   0.0000
    20 C18     31.7137   7.2179  67.9075   C.ar      1 PY8299   0.0000
    21 C19     31.0694   6.9063  66.7005   C.ar      1 PY8299   0.0000
    22 N21     30.4728   5.7093  66.5717   N.pl3     1 PY8299   0.0000
    23 H1      32.8358   8.6662  69.0561   H         1 PY8299   0.0000
    24 H2      30.6354   7.6160  64.7092   H         1 PY8299   0.0000
    25 H3      32.8816  10.3164  67.1946   H         1 PY8299   0.0000
    26 H4      31.7112   6.4850  68.7130   H         1 PY8299   0.0000
    27 H5      30.9109   4.9386  67.0660   H         1 PY8299   0.0000
    28 H6      25.9304   7.0950  63.9977   H         1 PY8299   0.0000
    29 H7      27.5661   2.7376  65.1931   H         1 PY8299   0.0000
    30 H8      28.0553   9.0139  64.6717   H         1 PY8299   0.0000
    31 H9      27.7274  10.0323  63.2511   H         1 PY8299   0.0000
    32 H10     29.7913  11.2849  63.8819   H         1 PY8299   0.0000
    33 H11     29.8535   9.1949  62.2172   H         1 PY8299   0.0000
    34 H12     30.1923   8.3008  63.7167   H         1 PY8299   0.0000
    35 H13     26.8388   8.2705  62.1662   H         1 PY8299   0.0000
    36 H14     28.3631   7.3727  62.3475   H         1 PY8299   0.0000
@<TRIPOS>BOND
     1     1     2    1
     2     2     3   ar
     3     2     7   ar
     4     3     4   ar
     5     4     5   ar
     6     5     6   ar
     7     5    22    1
     8     6     7   ar
     9     7     8    1
    10     8     9    1
    11     9    10    1
    12    10    11    1
    13    11    12    1
    14    12    13    1
    15    13    14    2
    16    13    15    2
    17    13    16    1
    18    16    17   ar
    19    16    18   ar
    20    17    21   ar
    21    18    19   ar
    22    19    20   ar
    23    20    21   ar
    24    21    22    1
    25    19    23    1
    26    17    24    1
    27    18    25    1
    28    20    26    1
    29    22    27    1
    30     8    28    1
    31     3    29    1
    32    10    30    1
    33    10    31    1
    34    12    32    1
    35    11    33    1
    36    11    34    1
    37     9    35    1
    38     9    36    1
@<TRIPOS>SUBSTRUCTURE
     1 PY8299      1 GROUP             0 A     PY8     0  
@<TRIPOS>SET
CCDC_LIGAND STATIC ATOMS
36 1 2 3 4 5 6 7 8 9 \
10 11 12 13 14 15 16 17 18 19 \
20 21 22 23 24 25 26 27 28 29 \
30 31 32 33 34 35 36 
