@<TRIPOS>MOLECULE
A:MBP1300
    30    31     1     0     1
SMALL
NO_CHARGES
****
Generated from the CSD

@<TRIPOS>ATOM
     1 C2      28.6312   6.1773  65.5210   C.ar      1 MBP1300   0.0000
     2 C4      27.2811   4.5240  64.6830   C.ar      1 MBP1300   0.0000
     3 C5      26.5974   5.4212  63.8018   C.ar      1 MBP1300   0.0000
     4 C4'     25.8760   9.9481  62.3918   C.2       1 MBP1300   0.0000
     5 O4'     24.9482   9.5175  61.6682   O.2       1 MBP1300   0.0000
     6 C3'     25.3421  12.2780  63.0373   C.3       1 MBP1300   0.0000
     7 C2'     26.3593  11.3683  62.3790   C.3       1 MBP1300   0.0000
     8 C12     26.6839  11.8155  60.9676   C.3       1 MBP1300   0.0000
     9 N9      26.6703   3.3698  64.4119   N.pl3     1 MBP1300   0.0000
    10 N3      28.2998   4.8909  65.4938   N.ar      1 MBP1300   0.0000
    11 N2      29.6339   6.5511  66.3276   N.pl3     1 MBP1300   0.0000
    12 N1      28.0081   7.0875  64.7129   N.ar      1 MBP1300   0.0000
    13 C6      26.9952   6.8059  63.9191   C.ar      1 MBP1300   0.0000
    14 O6      26.4158   7.7309  63.1600   O.3       1 MBP1300   0.0000
    15 C60     26.6413   9.0983  63.3688   C.3       1 MBP1300   0.0000
    16 N7      25.6500   4.7629  63.1070   N.2       1 MBP1300   0.0000
    17 C8      25.7147   3.5250  63.5069   C.2       1 MBP1300   0.0000
    18 H1      25.1890  11.9647  64.0690   H         1 MBP1300   0.0000
    19 H2      25.7074  13.3038  63.0199   H         1 MBP1300   0.0000
    20 H3      24.3988  12.2194  62.4964   H         1 MBP1300   0.0000
    21 H4      27.2769  11.4145  62.9636   H         1 MBP1300   0.0000
    22 H5      25.7902  11.7439  60.3495   H         1 MBP1300   0.0000
    23 H6      27.0318  12.8473  60.9846   H         1 MBP1300   0.0000
    24 H7      27.4631  11.1765  60.5545   H         1 MBP1300   0.0000
    25 H8      26.3293   9.3563  64.3797   H         1 MBP1300   0.0000
    26 H9      27.7050   9.3013  63.2542   H         1 MBP1300   0.0000
    27 H10     25.0700   2.7249  63.1460   H         1 MBP1300   0.0000
    28 H11     26.9078   2.4830  64.8449   H         1 MBP1300   0.0000
    29 H12     29.9126   7.5260  66.3724   H         1 MBP1300   0.0000
    30 H13     30.1147   5.8593  66.8937   H         1 MBP1300   0.0000
@<TRIPOS>BOND
     1     1    10   ar
     2     1    11    1
     3     1    12   ar
     4     2     3   ar
     5     2     9    1
     6     2    10   ar
     7     3    13   ar
     8     3    16    1
     9     4     5    2
    10     4     7    1
    11     4    15    1
    12     6     7    1
    13     7     8    1
    14     9    17    1
    15    12    13   ar
    16    13    14    1
    17    14    15    1
    18    16    17    2
    19     6    18    1
    20     6    19    1
    21     6    20    1
    22     7    21    1
    23     8    22    1
    24     8    23    1
    25     8    24    1
    26    15    25    1
    27    15    26    1
    28    17    27    1
    29     9    28    1
    30    11    29    1
    31    11    30    1
@<TRIPOS>SUBSTRUCTURE
     1 MBP1300     1 GROUP             0 A     MBP     0  
@<TRIPOS>SET
CCDC_LIGAND STATIC ATOMS
30 1 2 3 4 5 6 7 8 9 \
10 11 12 13 14 15 16 17 18 19 \
20 21 22 23 24 25 26 27 28 29 \
30 
