@<TRIPOS>MOLECULE
A:HGW301
    10    10     1     0     1
SMALL
NO_CHARGES
****
Generated from the CSD

@<TRIPOS>ATOM
     1 C4      27.6116   4.0124  64.9640   C.ar      1 HGW301   0.0000
     2 N1      28.0282   6.7082  65.1328   N.ar      1 HGW301   0.0000
     3 N2      28.5756   4.5239  65.8080   N.ar      1 HGW301   0.0000
     4 C3      28.7682   5.8505  65.8225   C.ar      1 HGW301   0.0000
     5 I1      25.3994   4.1177  62.8171   I         1 HGW301   0.0000
     6 C1      26.8619   4.8474  64.1479   C.ar      1 HGW301   0.0000
     7 C2      27.0945   6.2069  64.2893   C.ar      1 HGW301   0.0000
     8 H1      27.4365   2.9379  64.9379   H         1 HGW301   0.0000
     9 H2      29.5774   6.2460  66.4347   H         1 HGW301   0.0000
    10 H3      26.5009   6.9016  63.6968   H         1 HGW301   0.0000
@<TRIPOS>BOND
     1     1     3   ar
     2     1     6   ar
     3     2     4   ar
     4     2     7   ar
     5     3     4   ar
     6     5     6    1
     7     6     7   ar
     8     1     8    1
     9     4     9    1
    10     7    10    1
@<TRIPOS>SUBSTRUCTURE
     1 HGW301      1 GROUP             0 A     HGW     0  
@<TRIPOS>SET
CCDC_LIGAND STATIC ATOMS
10 1 2 3 4 5 6 7 8 9 \
10 
