@<TRIPOS>MOLECULE
A:628299
    44    47     1     0     1
SMALL
NO_CHARGES
****
Generated from the CSD

@<TRIPOS>ATOM
     1 C1      25.5654   4.5441  62.7723   C.2       1 628299   0.0000
     2 C2      26.2396   5.6307  63.3775   C.2       1 628299   0.0000
     3 N3      27.2062   5.4235  64.2518   N.pl3     1 628299   0.0000
     4 C4      27.5908   4.1769  64.6432   C.2       1 628299   0.0000
     5 C5      26.9865   2.9971  64.1158   C.2       1 628299   0.0000
     6 C6      25.9393   3.2073  63.1609   C.2       1 628299   0.0000
     7 C10     27.8923   6.3837  64.8750   C.2       1 628299   0.0000
     8 C11     28.7801   5.6344  65.6800   C.2       1 628299   0.0000
     9 N12     28.6193   4.2765  65.5538   N.2       1 628299   0.0000
    10 S1      33.6878  10.6286  64.8773   S.o2      1 628299   0.0000
    11 C14     32.5020   9.4005  65.2695   C.ar      1 628299   0.0000
    12 C15     32.4255   8.9558  66.6282   C.ar      1 628299   0.0000
    13 C16     31.4940   7.9756  66.9876   C.ar      1 628299   0.0000
    14 C17     30.6272   7.4302  65.9966   C.ar      1 628299   0.0000
    15 C18     30.7035   7.8794  64.6148   C.ar      1 628299   0.0000
    16 C19     31.6497   8.8745  64.2469   C.ar      1 628299   0.0000
    17 C23     24.5000   4.8067  61.7603   C.2       1 628299   0.0000
    18 C24     24.3089   6.2290  61.2402   C.ar      1 628299   0.0000
    19 C25     25.3120   6.8989  60.3726   C.ar      1 628299   0.0000
    20 C26     25.0969   8.2090  59.9025   C.ar      1 628299   0.0000
    21 C27     23.9373   8.9295  60.2695   C.ar      1 628299   0.0000
    22 C28     22.9468   8.3411  61.1060   C.ar      1 628299   0.0000
    23 C29     23.1223   7.0171  61.6068   C.ar      1 628299   0.0000
    24 O33     23.7953   3.9023  61.3060   O.2       1 628299   0.0000
    25 O34     34.3221  10.9826  66.1206   O.2       1 628299   0.0000
    26 N35     29.7019   6.4395  66.4962   N.pl3     1 628299   0.0000
    27 CL2     26.4592   6.2616  59.9787   Cl        1 628299   0.0000
    28 CL1     22.1499   6.4792  62.4110   Cl        1 628299   0.0000
    29 N1      32.9425  11.9689  64.3152   N.pl3     1 628299   0.0000
    30 O1      34.5165  10.1534  63.7975   O.2       1 628299   0.0000
    31 H1      27.3013   1.9999  64.4198   H         1 628299   0.0000
    32 H2      25.4230   2.3525  62.7264   H         1 628299   0.0000
    33 H3      25.9576   6.6503  63.1188   H         1 628299   0.0000
    34 H4      33.4912  12.7778  64.0416   H         1 628299   0.0000
    35 H5      31.9306  11.9930  64.2395   H         1 628299   0.0000
    36 H6      29.6864   6.2854  67.4993   H         1 628299   0.0000
    37 H7      22.0513   8.9043  61.3647   H         1 628299   0.0000
    38 H8      23.7999   9.9474  59.9079   H         1 628299   0.0000
    39 H9      25.8332   8.6729  59.2479   H         1 628299   0.0000
    40 H10     31.7238   9.2258  63.2188   H         1 628299   0.0000
    41 H11     30.0379   7.4546  63.8648   H         1 628299   0.0000
    42 H12     31.4316   7.6315  68.0189   H         1 628299   0.0000
    43 H13     33.0903   9.3791  67.3797   H         1 628299   0.0000
    44 H14     27.7937   7.4646  64.7862   H         1 628299   0.0000
@<TRIPOS>BOND
     1     1     2    2
     2     1     6    1
     3     1    17    1
     4     2     3    1
     5     3     4    1
     6     3     7    1
     7     4     5    1
     8     4     9    2
     9     5     6    2
    10     7     8    2
    11     8     9    1
    12     8    26    1
    13    10    11    1
    14    10    25    2
    15    10    29    1
    16    10    30    2
    17    11    12   ar
    18    11    16   ar
    19    12    13   ar
    20    13    14   ar
    21    14    15   ar
    22    14    26    1
    23    15    16   ar
    24    17    18    1
    25    17    24    2
    26    18    19   ar
    27    18    23   ar
    28    19    20   ar
    29    19    27    1
    30    20    21   ar
    31    21    22   ar
    32    22    23   ar
    33    23    28    1
    34     5    31    1
    35     6    32    1
    36     2    33    1
    37    29    34    1
    38    29    35    1
    39    26    36    1
    40    22    37    1
    41    21    38    1
    42    20    39    1
    43    16    40    1
    44    15    41    1
    45    13    42    1
    46    12    43    1
    47     7    44    1
@<TRIPOS>SUBSTRUCTURE
     1 628299      1 GROUP             0 A     628     0  
@<TRIPOS>SET
CCDC_LIGAND STATIC ATOMS
44 1 2 3 4 5 6 7 8 9 \
10 11 12 13 14 15 16 17 18 19 \
20 21 22 23 24 25 26 27 28 29 \
30 31 32 33 34 35 36 37 38 39 \
40 41 42 43 44 
