@<TRIPOS>MOLECULE
A:T9N1299
    38    40     1     0     1
SMALL
NO_CHARGES
****
Generated from the CSD

@<TRIPOS>ATOM
     1 C01     25.9503   8.1544  58.9844   C.3       1 T9N1299   0.0000
     2 N02     24.7534   8.5280  59.6839   N.pl3     1 T9N1299   0.0000
     3 C03     24.7630   7.9706  61.0124   C.2       1 T9N1299   0.0000
     4 N04     23.9002   7.0534  61.4690   N.2       1 T9N1299   0.0000
     5 C05     24.2814   6.3117  62.5884   C.2       1 T9N1299   0.0000
     6 C06     23.3310   5.4516  63.3626   C.3       1 T9N1299   0.0000
     7 C07     25.7313   6.3270  62.7303   C.2       1 T9N1299   0.0000
     8 C08     26.6412   5.5209  63.6161   C.ar      1 T9N1299   0.0000
     9 N09     27.6408   6.1477  64.3165   N.ar      1 T9N1299   0.0000
    10 C10     28.5667   5.5888  65.1503   C.ar      1 T9N1299   0.0000
    11 N11     29.6058   6.3240  65.8078   N.pl3     1 T9N1299   0.0000
    12 C12     30.2470   7.4665  65.2040   C.ar      1 T9N1299   0.0000
    13 C13     29.8646   7.9577  63.9972   C.ar      1 T9N1299   0.0000
    14 C14     30.5782   9.1668  63.4176   C.ar      1 T9N1299   0.0000
    15 O15     30.2193   9.6829  62.1911   O.3       1 T9N1299   0.0000
    16 C16     31.5981   9.7519  64.1067   C.ar      1 T9N1299   0.0000
    17 C17     32.0128   9.2173  65.4209   C.ar      1 T9N1299   0.0000
    18 C18     31.3697   8.1242  65.9514   C.ar      1 T9N1299   0.0000
    19 N19     28.4231   4.2798  65.2501   N.ar      1 T9N1299   0.0000
    20 C20     27.4803   3.5557  64.6087   C.ar      1 T9N1299   0.0000
    21 C21     26.5247   4.1252  63.7376   C.ar      1 T9N1299   0.0000
    22 C22     25.5017   3.3339  63.0014   C.1       1 T9N1299   0.0000
    23 N23     24.7196   2.7461  62.4231   N.1       1 T9N1299   0.0000
    24 S24     26.1605   7.8860  62.0293   S.3       1 T9N1299   0.0000
    25 H1      22.9180   4.6861  62.7073   H         1 T9N1299   0.0000
    26 H2      23.8606   4.9765  64.1871   H         1 T9N1299   0.0000
    27 H3      22.5233   6.0666  63.7565   H         1 T9N1299   0.0000
    28 H4      29.9019   6.0300  66.7331   H         1 T9N1299   0.0000
    29 H5      29.0504   7.4873  63.4479   H         1 T9N1299   0.0000
    30 H6      29.2682   9.9671  62.2171   H         1 T9N1299   0.0000
    31 H7      32.1097  10.6170  63.6874   H         1 T9N1299   0.0000
    32 H8      32.8273   9.6890  65.9685   H         1 T9N1299   0.0000
    33 H9      31.6769   7.7333  66.9203   H         1 T9N1299   0.0000
    34 H10     27.4555   2.4792  64.7710   H         1 T9N1299   0.0000
    35 H11     26.0073   7.0690  58.9165   H         1 T9N1299   0.0000
    36 H12     25.9330   8.5804  57.9823   H         1 T9N1299   0.0000
    37 H13     26.8184   8.5304  59.5238   H         1 T9N1299   0.0000
    38 H14     24.0094   9.1010  59.2988   H         1 T9N1299   0.0000
@<TRIPOS>BOND
     1     1     2    1
     2     2     3    1
     3     3     4    2
     4     3    24    1
     5     4     5    1
     6     5     6    1
     7     5     7    2
     8     7     8    1
     9     7    24    1
    10     8     9   ar
    11     8    21   ar
    12     9    10   ar
    13    10    11    1
    14    10    19   ar
    15    11    12    1
    16    12    13   ar
    17    12    18   ar
    18    13    14   ar
    19    14    15    1
    20    14    16   ar
    21    16    17   ar
    22    17    18   ar
    23    19    20   ar
    24    20    21   ar
    25    21    22    1
    26    22    23    3
    27     6    25    1
    28     6    26    1
    29     6    27    1
    30    11    28    1
    31    13    29    1
    32    15    30    1
    33    16    31    1
    34    17    32    1
    35    18    33    1
    36    20    34    1
    37     1    35    1
    38     1    36    1
    39     1    37    1
    40     2    38    1
@<TRIPOS>SUBSTRUCTURE
     1 T9N1299     1 GROUP             0 A     T9N     0  
@<TRIPOS>SET
CCDC_LIGAND STATIC ATOMS
38 1 2 3 4 5 6 7 8 9 \
10 11 12 13 14 15 16 17 18 19 \
20 21 22 23 24 25 26 27 28 29 \
30 31 32 33 34 35 36 37 38 
