@<TRIPOS>MOLECULE
A:EZV300
    57    62     1     0     1
SMALL
NO_CHARGES
****
Generated from the CSD

@<TRIPOS>ATOM
     1 C1      25.4250   5.7521  62.2068   C.ar      1 EZV300   0.0000
     2 C2      24.9328   4.4633  62.2189   C.ar      1 EZV300   0.0000
     3 C3      25.4307   3.5189  63.0949   C.ar      1 EZV300   0.0000
     4 C4      26.4460   3.9559  63.9119   C.ar      1 EZV300   0.0000
     5 C5      26.9495   5.2391  63.9069   C.ar      1 EZV300   0.0000
     6 C6      26.4242   6.1887  63.0442   C.ar      1 EZV300   0.0000
     7 N7      27.1511   3.3020  64.8756   N.pl3     1 EZV300   0.0000
     8 N8      28.0983   4.0341  65.4768   N.2       1 EZV300   0.0000
     9 C9      27.9699   5.2244  64.8911   C.2       1 EZV300   0.0000
    10 C10     28.8904   6.3371  65.1843   C.2       1 EZV300   0.0000
    11 N11     29.8041   6.3558  66.1959   N.pl3     1 EZV300   0.0000
    12 C12     30.5073   7.5213  66.1107   C.ar      1 EZV300   0.0000
    13 C13     29.9711   8.1785  65.0210   C.ar      1 EZV300   0.0000
    14 N14     28.9761   7.4236  64.4531   N.2       1 EZV300   0.0000
    15 C15     31.5261   8.0202  66.8910   C.ar      1 EZV300   0.0000
    16 C16     31.9921   9.2513  66.4905   C.ar      1 EZV300   0.0000
    17 C17     31.4775   9.9201  65.4017   C.ar      1 EZV300   0.0000
    18 C18     30.4537   9.4180  64.6224   C.ar      1 EZV300   0.0000
    19 C19     23.9547   4.0821  61.2298   C.ar      1 EZV300   0.0000
    20 N20     29.9312  10.1042  63.5061   N.3       1 EZV300   0.0000
    21 C21     30.2042   9.3590  62.2890   C.3       1 EZV300   0.0000
    22 C22     29.3239   9.9238  61.1934   C.3       1 EZV300   0.0000
    23 N23     29.6407  11.3771  61.0773   N.3       1 EZV300   0.0000
    24 C24     29.5605  12.1571  62.3442   C.3       1 EZV300   0.0000
    25 C25     30.3974  11.4774  63.4053   C.3       1 EZV300   0.0000
    26 C26     28.8328  12.0137  60.0134   C.3       1 EZV300   0.0000
    27 C27     22.9385   4.9162  60.8149   C.ar      1 EZV300   0.0000
    28 C28     22.0754   4.4963  59.8262   C.ar      1 EZV300   0.0000
    29 C29     22.1968   3.2541  59.2378   C.ar      1 EZV300   0.0000
    30 C30     23.2078   2.4163  59.6453   C.ar      1 EZV300   0.0000
    31 C31     24.0761   2.8435  60.6255   C.ar      1 EZV300   0.0000
    32 N32     21.3022   2.8478  58.2445   N.pl3     1 EZV300   0.0000
    33 H1      31.4481  11.4947  63.1195   H         1 EZV300   0.0000
    34 H2      30.2727  11.9848  64.3607   H         1 EZV300   0.0000
    35 H3      24.8855   2.1841  60.9352   H         1 EZV300   0.0000
    36 H4      26.9727   2.3331  65.1200   H         1 EZV300   0.0000
    37 H5      31.8978  10.8908  65.1431   H         1 EZV300   0.0000
    38 H6      29.9378   5.6288  66.8915   H         1 EZV300   0.0000
    39 H7      25.0464   2.5007  63.1355   H         1 EZV300   0.0000
    40 H8      29.9765   8.3049  62.4409   H         1 EZV300   0.0000
    41 H9      31.2526   9.4680  62.0150   H         1 EZV300   0.0000
    42 H10     21.2771   5.1618  59.5010   H         1 EZV300   0.0000
    43 H11     24.9999   6.4603  61.4972   H         1 EZV300   0.0000
    44 H12     32.7990   9.7149  67.0561   H         1 EZV300   0.0000
    45 H13     22.8188   5.9004  61.2654   H         1 EZV300   0.0000
    46 H14     31.9283   7.4865  67.7508   H         1 EZV300   0.0000
    47 H15     28.2745   9.7903  61.4521   H         1 EZV300   0.0000
    48 H16     29.5322   9.4201  60.2506   H         1 EZV300   0.0000
    49 H17     28.5242  12.2070  62.6753   H         1 EZV300   0.0000
    50 H18     29.9365  13.1650  62.1751   H         1 EZV300   0.0000
    51 H19     21.3996   1.9321  57.8175   H         1 EZV300   0.0000
    52 H20     20.5550   3.4683  57.9498   H         1 EZV300   0.0000
    53 H21     26.7812   7.2175  63.0305   H         1 EZV300   0.0000
    54 H22     27.7747  11.9049  60.2469   H         1 EZV300   0.0000
    55 H23     29.0838  13.0715  59.9507   H         1 EZV300   0.0000
    56 H24     29.0452  11.5331  59.0596   H         1 EZV300   0.0000
    57 H25     23.3205   1.4291  59.1996   H         1 EZV300   0.0000
@<TRIPOS>BOND
     1     1     2   ar
     2     1     6   ar
     3     2     3   ar
     4     2    19    1
     5     3     4   ar
     6     4     5   ar
     7     4     7    1
     8     5     6   ar
     9     5     9    1
    10     7     8    1
    11     8     9    2
    12     9    10    1
    13    10    11    1
    14    10    14    2
    15    11    12    1
    16    12    13   ar
    17    12    15   ar
    18    13    14    1
    19    13    18   ar
    20    15    16   ar
    21    16    17   ar
    22    17    18   ar
    23    18    20    1
    24    19    27   ar
    25    19    31   ar
    26    20    21    1
    27    20    25    1
    28    21    22    1
    29    22    23    1
    30    23    24    1
    31    23    26    1
    32    24    25    1
    33    27    28   ar
    34    28    29   ar
    35    29    30   ar
    36    29    32    1
    37    30    31   ar
    38    25    33    1
    39    25    34    1
    40    31    35    1
    41     7    36    1
    42    17    37    1
    43    11    38    1
    44     3    39    1
    45    21    40    1
    46    21    41    1
    47    28    42    1
    48     1    43    1
    49    16    44    1
    50    27    45    1
    51    15    46    1
    52    22    47    1
    53    22    48    1
    54    24    49    1
    55    24    50    1
    56    32    51    1
    57    32    52    1
    58     6    53    1
    59    26    54    1
    60    26    55    1
    61    26    56    1
    62    30    57    1
@<TRIPOS>SUBSTRUCTURE
     1 EZV300      1 GROUP             0 A     EZV     0  
@<TRIPOS>SET
CCDC_LIGAND STATIC ATOMS
57 1 2 3 4 5 6 7 8 9 \
10 11 12 13 14 15 16 17 18 19 \
20 21 22 23 24 25 26 27 28 29 \
30 31 32 33 34 35 36 37 38 39 \
40 41 42 43 44 45 46 47 48 49 \
50 51 52 53 54 55 56 57 
