@<TRIPOS>MOLECULE
A:45K301
    39    43     1     0     1
SMALL
NO_CHARGES
****
Generated from the CSD

@<TRIPOS>ATOM
     1 N1      24.3166   7.0467  61.0510   N.2       1 45K301   0.0000
     2 N2      29.6001   6.7449  65.3222   N.pl3     1 45K301   0.0000
     3 N3      26.7924   3.7189  64.6172   N.am      1 45K301   0.0000
     4 OAA     28.6218   4.2568  65.8707   O.2       1 45K301   0.0000
     5 OAB     34.7080  10.2662  63.8675   O.2       1 45K301   0.0000
     6 OAC     34.1193  12.6972  64.2409   O.2       1 45K301   0.0000
     7 CAD     28.5132   6.8554  64.5476   C.2       1 45K301   0.0000
     8 CAE     31.2321   7.7139  66.7350   C.ar      1 45K301   0.0000
     9 CAF     32.1783   8.7106  67.0004   C.ar      1 45K301   0.0000
    10 CAG     24.2968   4.8129  62.0763   C.ar      1 45K301   0.0000
    11 CAH     24.9099   3.9667  63.0014   C.ar      1 45K301   0.0000
    12 CAI     24.9704   8.2219  61.0113   C.2       1 45K301   0.0000
    13 CAJ     30.7641   8.7128  64.6026   C.ar      1 45K301   0.0000
    14 CAK     33.4572  10.8838  66.1944   C.3       1 45K301   0.0000
    15 CAL     32.0520  10.9205  63.9201   C.3       1 45K301   0.0000
    16 SAP     26.2865   8.1060  62.0767   S.3       1 45K301   0.0000
    17 CAQ     30.4739   7.7386  65.5576   C.ar      1 45K301   0.0000
    18 CAR     32.4351   9.7233  66.0693   C.ar      1 45K301   0.0000
    19 CAS     31.6795   9.7456  64.8629   C.ar      1 45K301   0.0000
    20 CAT     27.7208   4.5632  65.0808   C.2       1 45K301   0.0000
    21 CAU     27.6656   5.7563  64.3611   C.2       1 45K301   0.0000
    22 CAV     24.7898   6.1039  61.8794   C.ar      1 45K301   0.0000
    23 CAW     26.0289   4.3794  63.7318   C.ar      1 45K301   0.0000
    24 CAX     25.9445   6.5123  62.5933   C.ar      1 45K301   0.0000
    25 CAY     26.5645   5.6589  63.5114   C.ar      1 45K301   0.0000
    26 SAZ     33.7415  11.2555  64.4331   S.o2      1 45K301   0.0000
    27 H1      23.4345   4.4663  61.5086   H         1 45K301   0.0000
    28 H2      29.7763   5.8475  65.7625   H         1 45K301   0.0000
    29 H3      26.6839   2.7468  64.8881   H         1 45K301   0.0000
    30 H4      28.2878   7.8033  64.0610   H         1 45K301   0.0000
    31 H5      31.0834   6.9090  67.4533   H         1 45K301   0.0000
    32 H6      32.7220   8.6978  67.9439   H         1 45K301   0.0000
    33 H7      24.5094   2.9661  63.1574   H         1 45K301   0.0000
    34 H8      24.7042   9.0879  60.4070   H         1 45K301   0.0000
    35 H9      30.2697   8.6717  63.6332   H         1 45K301   0.0000
    36 H10     34.3717  10.5638  66.6917   H         1 45K301   0.0000
    37 H11     33.0357  11.7371  66.7237   H         1 45K301   0.0000
    38 H12     31.4069  11.7828  64.0826   H         1 45K301   0.0000
    39 H13     32.0040  10.6234  62.8735   H         1 45K301   0.0000
@<TRIPOS>BOND
     1     1    12    2
     2     1    22    1
     3     2     7    1
     4     2    17    1
     5     3    20   am
     6     3    23    1
     7     4    20    2
     8     5    26    2
     9     6    26    2
    10     7    21    2
    11     8     9   ar
    12     8    17   ar
    13     9    18   ar
    14    10    11   ar
    15    10    22   ar
    16    11    23   ar
    17    12    16    1
    18    13    17   ar
    19    13    19   ar
    20    14    18    1
    21    14    26    1
    22    15    19    1
    23    15    26    1
    24    16    24    1
    25    18    19   ar
    26    20    21    1
    27    21    25    1
    28    22    24   ar
    29    23    25   ar
    30    24    25   ar
    31    10    27    1
    32     2    28    1
    33     3    29    1
    34     7    30    1
    35     8    31    1
    36     9    32    1
    37    11    33    1
    38    12    34    1
    39    13    35    1
    40    14    36    1
    41    14    37    1
    42    15    38    1
    43    15    39    1
@<TRIPOS>SUBSTRUCTURE
     1 45K301      1 GROUP             0 A     45K     0  
@<TRIPOS>SET
CCDC_LIGAND STATIC ATOMS
39 1 2 3 4 5 6 7 8 9 \
10 11 12 13 14 15 16 17 18 19 \
20 21 22 23 24 25 26 27 28 29 \
30 31 32 33 34 35 36 37 38 39 
