@<TRIPOS>MOLECULE
A:0BX299
    37    39     1     0     1
SMALL
NO_CHARGES
****
Generated from the CSD

@<TRIPOS>ATOM
     1 C06     32.1855   9.0863  66.5325   C.ar      1 0BX299   0.0000
     2 C11     32.9214  10.3751  66.6935   C.2       1 0BX299   0.0000
     3 C05     32.3715   8.1350  67.5153   C.ar      1 0BX299   0.0000
     4 C10     31.7327   6.9147  67.4529   C.ar      1 0BX299   0.0000
     5 C09     30.8855   6.6364  66.3954   C.ar      1 0BX299   0.0000
     6 C08     30.6846   7.5869  65.3891   C.ar      1 0BX299   0.0000
     7 C07     31.3402   8.8225  65.4541   C.ar      1 0BX299   0.0000
     8 N01     30.2743   5.3429  66.4297   N.pl3     1 0BX299   0.0000
     9 C12     29.1867   4.9169  65.6089   C.ar      1 0BX299   0.0000
    10 N03     28.8520   3.6221  65.5974   N.ar      1 0BX299   0.0000
    11 C15     27.8375   3.1717  64.8384   C.ar      1 0BX299   0.0000
    12 C14     27.1480   4.0918  64.0456   C.ar      1 0BX299   0.0000
    13 C13     27.5150   5.4400  64.0749   C.ar      1 0BX299   0.0000
    14 N02     28.5309   5.8127  64.8704   N.ar      1 0BX299   0.0000
    15 N04     26.8733   6.4513  63.2850   N.pl3     1 0BX299   0.0000
    16 C16     25.6900   6.2633  62.5024   C.ar      1 0BX299   0.0000
    17 C17     24.5632   5.6690  63.0563   C.ar      1 0BX299   0.0000
    18 C18     23.4022   5.4898  62.3131   C.ar      1 0BX299   0.0000
    19 C19     23.3525   5.9359  60.9971   C.ar      1 0BX299   0.0000
    20 C20     24.4783   6.5509  60.4557   C.ar      1 0BX299   0.0000
    21 C21     25.6483   6.7185  61.1914   C.ar      1 0BX299   0.0000
    22 O22     33.9174  10.4143  67.4785   O.3       1 0BX299   0.0000
    23 O23     32.5608  11.4139  66.0744   O.2       1 0BX299   0.0000
    24 H1      33.0330   8.3516  68.3528   H         1 0BX299   0.0000
    25 H2      31.8944   6.1726  68.2334   H         1 0BX299   0.0000
    26 H3      30.0190   7.3662  64.5559   H         1 0BX299   0.0000
    27 H4      31.1923   9.5675  64.6737   H         1 0BX299   0.0000
    28 H5      30.6455   4.6713  67.0940   H         1 0BX299   0.0000
    29 H6      27.5611   2.1184  64.8418   H         1 0BX299   0.0000
    30 H7      26.3293   3.7607  63.4085   H         1 0BX299   0.0000
    31 H8      27.2929   7.3755  63.2809   H         1 0BX299   0.0000
    32 H9      24.5898   5.3370  64.0931   H         1 0BX299   0.0000
    33 H10     22.5363   5.0027  62.7591   H         1 0BX299   0.0000
    34 H11     22.4502   5.8067  60.4012   H         1 0BX299   0.0000
    35 H12     24.4426   6.9108  59.4285   H         1 0BX299   0.0000
    36 H13     26.5177   7.1993  60.7453   H         1 0BX299   0.0000
    37 H14     34.6061   9.7680  67.1719   H         1 0BX299   0.0000
@<TRIPOS>BOND
     1     1     2    1
     2     1     3   ar
     3     1     7   ar
     4     2    22    1
     5     2    23    2
     6     3     4   ar
     7     4     5   ar
     8     5     6   ar
     9     5     8    1
    10     6     7   ar
    11     8     9    1
    12     9    10   ar
    13     9    14   ar
    14    10    11   ar
    15    11    12   ar
    16    12    13   ar
    17    13    14   ar
    18    13    15    1
    19    15    16    1
    20    16    17   ar
    21    16    21   ar
    22    17    18   ar
    23    18    19   ar
    24    19    20   ar
    25    20    21   ar
    26     3    24    1
    27     4    25    1
    28     6    26    1
    29     7    27    1
    30     8    28    1
    31    11    29    1
    32    12    30    1
    33    15    31    1
    34    17    32    1
    35    18    33    1
    36    19    34    1
    37    20    35    1
    38    21    36    1
    39    22    37    1
@<TRIPOS>SUBSTRUCTURE
     1 0BX299      1 GROUP             0 A     0BX     0  
@<TRIPOS>SET
CCDC_LIGAND STATIC ATOMS
37 1 2 3 4 5 6 7 8 9 \
10 11 12 13 14 15 16 17 18 19 \
20 21 22 23 24 25 26 27 28 29 \
30 31 32 33 34 35 36 37 
