@<TRIPOS>MOLECULE
A:LZB1299
    26    27     1     0     1
SMALL
NO_CHARGES
****
Generated from the CSD

@<TRIPOS>ATOM
     1 C1      31.5083   7.9334  67.1497   C.3       1 LZB1299   0.0000
     2 C2      30.6480   7.9731  65.8967   C.3       1 LZB1299   0.0000
     3 C3      31.4889   8.1244  64.6321   C.3       1 LZB1299   0.0000
     4 N4      29.8287   6.7670  65.8080   N.pl3     1 LZB1299   0.0000
     5 C5      28.7112   6.6987  64.9575   C.2       1 LZB1299   0.0000
     6 C6      28.2486   7.8151  64.2660   C.2       1 LZB1299   0.0000
     7 C7      27.1500   7.6459  63.4283   C.2       1 LZB1299   0.0000
     8 CL8     26.5216   8.9941  62.5483   Cl        1 LZB1299   0.0000
     9 N9      26.5143   6.4898  63.2272   N.2       1 LZB1299   0.0000
    10 C10     26.9509   5.4204  63.9092   C.2       1 LZB1299   0.0000
    11 C11     26.5128   4.1159  63.9453   C.2       1 LZB1299   0.0000
    12 C12     25.4144   3.6043  63.2021   C.1       1 LZB1299   0.0000
    13 N13     24.5364   3.1936  62.5983   N.1       1 LZB1299   0.0000
    14 C14     27.3728   3.4383  64.7968   C.2       1 LZB1299   0.0000
    15 N15     28.3236   4.2814  65.3078   N.2       1 LZB1299   0.0000
    16 N16     28.0263   5.5018  64.7694   N.pl3     1 LZB1299   0.0000
    17 H1      27.3014   2.3766  65.0283   H         1 LZB1299   0.0000
    18 H2      32.1736   7.2817  64.5485   H         1 LZB1299   0.0000
    19 H3      30.8347   8.1482  63.7619   H         1 LZB1299   0.0000
    20 H4      32.0584   9.0512  64.6836   H         1 LZB1299   0.0000
    21 H5      30.0717   5.9597  66.3733   H         1 LZB1299   0.0000
    22 H6      32.0780   8.8582  67.2282   H         1 LZB1299   0.0000
    23 H7      30.8698   7.8250  68.0251   H         1 LZB1299   0.0000
    24 H8      32.1933   7.0887  67.0931   H         1 LZB1299   0.0000
    25 H9      29.9826   8.8322  65.9678   H         1 LZB1299   0.0000
    26 H10     28.7292   8.7860  64.3766   H         1 LZB1299   0.0000
@<TRIPOS>BOND
     1     1     2    1
     2     2     3    1
     3     2     4    1
     4     4     5    1
     5     5     6    2
     6     5    16    1
     7     6     7    1
     8     7     8    1
     9     7     9    2
    10     9    10    1
    11    10    11    2
    12    10    16    1
    13    11    12    1
    14    11    14    1
    15    12    13    3
    16    14    15    2
    17    15    16    1
    18    14    17    1
    19     3    18    1
    20     3    19    1
    21     3    20    1
    22     4    21    1
    23     1    22    1
    24     1    23    1
    25     1    24    1
    26     2    25    1
    27     6    26    1
@<TRIPOS>SUBSTRUCTURE
     1 LZB1299     1 GROUP             0 A     LZB     0  
@<TRIPOS>SET
CCDC_LIGAND STATIC ATOMS
26 1 2 3 4 5 6 7 8 9 \
10 11 12 13 14 15 16 17 18 19 \
20 21 22 23 24 25 26 
