@<TRIPOS>MOLECULE
A:50Z446
    32    33     1     0     1
SMALL
NO_CHARGES
****
Generated from the CSD

@<TRIPOS>ATOM
     1 N1      28.6222   4.3030  65.5252   N.2       1 50Z446   0.0000
     2 C2      27.6461   4.1160  64.6145   C.2       1 50Z446   0.0000
     3 N3      27.1160   2.8865  64.4285   N.pl3     1 50Z446   0.0000
     4 C4      27.2784   5.2826  63.9179   C.2       1 50Z446   0.0000
     5 C5      26.3323   5.4019  62.9199   C.2       1 50Z446   0.0000
     6 C6      26.0417   6.7092  62.2310   C.ar      1 50Z446   0.0000
     7 C8      26.0763   9.1874  62.1749   C.ar      1 50Z446   0.0000
     8 N8      26.3490   7.9598  62.8427   N.ar      1 50Z446   0.0000
     9 C9      25.5069   9.1687  60.9191   C.ar      1 50Z446   0.0000
    10 C10     25.1957   7.9798  60.2954   C.ar      1 50Z446   0.0000
    11 C11     25.4535   6.7297  60.9299   C.ar      1 50Z446   0.0000
    12 O12     25.6350   4.3121  62.4979   O.3       1 50Z446   0.0000
    13 S13     28.2030   6.6273  64.4634   S.3       1 50Z446   0.0000
    14 C14     29.0233   5.5914  65.5579   C.2       1 50Z446   0.0000
    15 N15     30.0197   6.0043  66.4140   N.2       1 50Z446   0.0000
    16 C16     30.4805   7.3874  66.4507   C.3       1 50Z446   0.0000
    17 C17     31.4127   7.6956  65.2983   C.3       1 50Z446   0.0000
    18 C18     31.1026   8.7689  64.3330   C.3       1 50Z446   0.0000
    19 H1      25.2995  10.1095  60.4115   H         1 50Z446   0.0000
    20 H2      24.7464   7.9956  59.3035   H         1 50Z446   0.0000
    21 H3      26.3812   2.7492  63.7420   H         1 50Z446   0.0000
    22 H4      27.4529   2.1006  64.9754   H         1 50Z446   0.0000
    23 H5      31.0082   7.5593  67.3877   H         1 50Z446   0.0000
    24 H6      29.6173   8.0490  66.3936   H         1 50Z446   0.0000
    25 H7      25.1271   3.9285  63.2601   H         1 50Z446   0.0000
    26 H8      25.2037   5.7971  60.4261   H         1 50Z446   0.0000
    27 H9      26.3162  10.1359  62.6532   H         1 50Z446   0.0000
    28 H10     31.5043   6.7771  64.7205   H         1 50Z446   0.0000
    29 H11     32.3769   7.9451  65.7387   H         1 50Z446   0.0000
    30 H12     31.0285   9.7197  64.8587   H         1 50Z446   0.0000
    31 H13     31.8946   8.8269  63.5878   H         1 50Z446   0.0000
    32 H14     30.1559   8.5518  63.8405   H         1 50Z446   0.0000
@<TRIPOS>BOND
     1     1     2    2
     2     1    14    1
     3     2     3    1
     4     2     4    1
     5     4     5    2
     6     4    13    1
     7     5     6    1
     8     5    12    1
     9     6     8   ar
    10     6    11   ar
    11     7     8   ar
    12     7     9   ar
    13     9    10   ar
    14    10    11   ar
    15    13    14    1
    16    14    15    2
    17    15    16    1
    18    16    17    1
    19    17    18    1
    20     9    19    1
    21    10    20    1
    22     3    21    1
    23     3    22    1
    24    16    23    1
    25    16    24    1
    26    12    25    1
    27    11    26    1
    28     7    27    1
    29    17    28    1
    30    17    29    1
    31    18    30    1
    32    18    31    1
    33    18    32    1
@<TRIPOS>SUBSTRUCTURE
     1 50Z446      1 GROUP             0 A     50Z     0  
@<TRIPOS>SET
CCDC_LIGAND STATIC ATOMS
32 1 2 3 4 5 6 7 8 9 \
10 11 12 13 14 15 16 17 18 19 \
20 21 22 23 24 25 26 27 28 29 \
30 31 32 
