@<TRIPOS>MOLECULE
A:FMD299
    48    50     1     0     1
SMALL
NO_CHARGES
****
Generated from the CSD

@<TRIPOS>ATOM
     1 F17     23.4172   5.6484  60.9058   F         1 FMD299   0.0000
     2 C1      24.2198   5.0771  61.8220   C.ar      1 FMD299   0.0000
     3 C2      25.3743   5.7834  62.1962   C.ar      1 FMD299   0.0000
     4 C18     25.6636   7.0273  61.6025   C.1       1 FMD299   0.0000
     5 C19     25.9259   8.0863  61.1124   C.1       1 FMD299   0.0000
     6 C20     26.2893   9.3213  60.5420   C.3       1 FMD299   0.0000
     7 O27     26.0763   9.2426  59.1294   O.3       1 FMD299   0.0000
     8 C23     25.6627  10.5611  61.2302   C.3       1 FMD299   0.0000
     9 N28     25.2728  10.3104  62.6241   N.3       1 FMD299   0.0000
    10 C24     26.7450  11.6563  61.1940   C.3       1 FMD299   0.0000
    11 O26     26.1918  12.9795  61.2067   O.3       1 FMD299   0.0000
    12 C25     27.7079  11.5237  59.9921   C.3       1 FMD299   0.0000
    13 C3      26.2236   5.1346  63.2084   C.ar      1 FMD299   0.0000
    14 C4      25.8416   3.8660  63.7445   C.ar      1 FMD299   0.0000
    15 N9      26.8253   3.5166  64.6488   N.am      1 FMD299   0.0000
    16 C8      27.8417   4.4774  64.7907   C.2       1 FMD299   0.0000
    17 O10     28.7870   4.3564  65.5442   O.2       1 FMD299   0.0000
    18 C5      24.6919   3.2099  63.3283   C.ar      1 FMD299   0.0000
    19 C6      23.8770   3.8284  62.3604   C.ar      1 FMD299   0.0000
    20 C7      27.3798   5.5169  63.8085   C.2       1 FMD299   0.0000
    21 C11     28.1196   6.7638  63.5510   C.2       1 FMD299   0.0000
    22 C12     29.3885   7.2986  64.0412   C.2       1 FMD299   0.0000
    23 C13     30.0241   8.4807  63.7140   C.2       1 FMD299   0.0000
    24 O21     29.5745   9.4225  62.8084   O.3       1 FMD299   0.0000
    25 C22     30.0346  10.7795  62.9189   C.3       1 FMD299   0.0000
    26 C14     31.2533   8.4780  64.5004   C.2       1 FMD299   0.0000
    27 C15     31.2683   7.3423  65.2450   C.2       1 FMD299   0.0000
    28 N16     30.1438   6.6289  64.9827   N.pl3     1 FMD299   0.0000
    29 H1      29.8972   5.7425  65.4113   H         1 FMD299   0.0000
    30 H2      24.7932  10.8906  60.6633   H         1 FMD299   0.0000
    31 H3      25.1184   9.0526  58.9492   H         1 FMD299   0.0000
    32 H4      26.0910  10.0413  63.1611   H         1 FMD299   0.0000
    33 H5      24.8708  11.1541  63.0200   H         1 FMD299   0.0000
    34 H6      27.3422  11.5486  62.0982   H         1 FMD299   0.0000
    35 H7      24.4255   2.2381  63.7412   H         1 FMD299   0.0000
    36 H8      25.6571  13.1068  62.0337   H         1 FMD299   0.0000
    37 H9      27.1418  11.5909  59.0642   H         1 FMD299   0.0000
    38 H10     28.4444  12.3252  60.0268   H         1 FMD299   0.0000
    39 H11     28.2160  10.5616  60.0385   H         1 FMD299   0.0000
    40 H12     27.3657   9.4119  60.6800   H         1 FMD299   0.0000
    41 H13     22.9684   3.3302  62.0255   H         1 FMD299   0.0000
    42 H14     27.6159   7.4260  62.8485   H         1 FMD299   0.0000
    43 H15     31.1187  10.8045  62.8191   H         1 FMD299   0.0000
    44 H16     29.5835  11.3811  62.1312   H         1 FMD299   0.0000
    45 H17     29.7502  11.1812  63.8904   H         1 FMD299   0.0000
    46 H18     32.0220   9.2494  64.4917   H         1 FMD299   0.0000
    47 H19     32.0547   7.0513  65.9398   H         1 FMD299   0.0000
    48 H20     26.8152   2.6430  65.1654   H         1 FMD299   0.0000
@<TRIPOS>BOND
     1     1     2    1
     2     2     3   ar
     3     2    19   ar
     4     3     4    1
     5     3    13   ar
     6     4     5    3
     7     5     6    1
     8     6     7    1
     9     6     8    1
    10     8     9    1
    11     8    10    1
    12    10    11    1
    13    10    12    1
    14    13    14   ar
    15    13    20    1
    16    14    15    1
    17    14    18   ar
    18    15    16   am
    19    16    17    2
    20    16    20    1
    21    18    19   ar
    22    20    21    2
    23    21    22    1
    24    22    23    2
    25    22    28    1
    26    23    24    1
    27    23    26    1
    28    24    25    1
    29    26    27    2
    30    27    28    1
    31    28    29    1
    32     8    30    1
    33     7    31    1
    34     9    32    1
    35     9    33    1
    36    10    34    1
    37    18    35    1
    38    11    36    1
    39    12    37    1
    40    12    38    1
    41    12    39    1
    42     6    40    1
    43    19    41    1
    44    21    42    1
    45    25    43    1
    46    25    44    1
    47    25    45    1
    48    26    46    1
    49    27    47    1
    50    15    48    1
@<TRIPOS>SUBSTRUCTURE
     1 FMD299      1 GROUP             0 A     FMD     0  
@<TRIPOS>SET
CCDC_LIGAND STATIC ATOMS
48 1 2 3 4 5 6 7 8 9 \
10 11 12 13 14 15 16 17 18 19 \
20 21 22 23 24 25 26 27 28 29 \
30 31 32 33 34 35 36 37 38 39 \
40 41 42 43 44 45 46 47 48 
