@<TRIPOS>MOLECULE
A:X76488
    30    31     1     0     1
SMALL
NO_CHARGES
****
Generated from the CSD

@<TRIPOS>ATOM
     1 N01     29.9831   6.3646  64.7620   N.pl3     1 X76488   0.0000
     2 N02     26.9743   3.5737  64.6307   N.am      1 X76488   0.0000
     3 N03     31.5944   8.9803  67.8085   N.ar      1 X76488   0.0000
     4 C04     26.3982   6.2876  63.9768   C.ar      1 X76488   0.0000
     5 C05     27.6757   5.8601  64.4668   C.ar      1 X76488   0.0000
     6 C06     28.8151   6.7410  64.3199   C.ar      1 X76488   0.0000
     7 C07     28.6276   8.0250  63.6787   C.ar      1 X76488   0.0000
     8 C08     27.3517   8.4238  63.2024   C.ar      1 X76488   0.0000
     9 C09     26.2386   7.5567  63.3519   C.ar      1 X76488   0.0000
    10 C10     27.7804   4.6050  65.0625   C.2       1 X76488   0.0000
    11 C11     31.2641   7.0846  64.4865   C.3       1 X76488   0.0000
    12 C12     31.5010   8.1938  65.4835   C.ar      1 X76488   0.0000
    13 C13     31.3881   7.9844  66.8765   C.ar      1 X76488   0.0000
    14 C14     31.9281  10.2324  67.3443   C.ar      1 X76488   0.0000
    15 C15     32.0643  10.5380  65.9739   C.ar      1 X76488   0.0000
    16 C16     31.8444   9.4941  65.0381   C.ar      1 X76488   0.0000
    17 O17     28.5778   4.3872  65.9502   O.2       1 X76488   0.0000
    18 H1      31.9401   9.6937  63.9718   H         1 X76488   0.0000
    19 H2      32.3293  11.5417  65.6450   H         1 X76488   0.0000
    20 H3      32.0954  11.0262  68.0708   H         1 X76488   0.0000
    21 H4      31.1256   6.9889  67.2314   H         1 X76488   0.0000
    22 H5      27.0474   2.6578  65.0620   H         1 X76488   0.0000
    23 H6      26.3077   3.7302  63.8815   H         1 X76488   0.0000
    24 H7      30.0252   5.5258  65.3319   H         1 X76488   0.0000
    25 H8      27.2272   9.3937  62.7231   H         1 X76488   0.0000
    26 H9      31.2218   7.5116  63.4856   H         1 X76488   0.0000
    27 H10     32.0882   6.3751  64.5440   H         1 X76488   0.0000
    28 H11     25.5360   5.6311  64.0843   H         1 X76488   0.0000
    29 H12     25.2591   7.8629  62.9875   H         1 X76488   0.0000
    30 H13     29.4780   8.6948  63.5601   H         1 X76488   0.0000
@<TRIPOS>BOND
     1     1     6    1
     2     1    11    1
     3     2    10   am
     4     3    13   ar
     5     3    14   ar
     6     4     5   ar
     7     4     9   ar
     8     5     6   ar
     9     5    10    1
    10     6     7   ar
    11     7     8   ar
    12     8     9   ar
    13    10    17    2
    14    11    12    1
    15    12    13   ar
    16    12    16   ar
    17    14    15   ar
    18    15    16   ar
    19    16    18    1
    20    15    19    1
    21    14    20    1
    22    13    21    1
    23     2    22    1
    24     2    23    1
    25     1    24    1
    26     8    25    1
    27    11    26    1
    28    11    27    1
    29     4    28    1
    30     9    29    1
    31     7    30    1
@<TRIPOS>SUBSTRUCTURE
     1 X76488      1 GROUP             0 A     X76     0  
@<TRIPOS>SET
CCDC_LIGAND STATIC ATOMS
30 1 2 3 4 5 6 7 8 9 \
10 11 12 13 14 15 16 17 18 19 \
20 21 22 23 24 25 26 27 28 29 \
30 
