@<TRIPOS>MOLECULE
A:X06300
    24    25     1     0     1
SMALL
NO_CHARGES
****
Generated from the CSD

@<TRIPOS>ATOM
     1 N01     28.4363   7.8578  63.6769   N.ar      1 X06300   0.0000
     2 N02     30.4423   8.6089  64.7796   N.ar      1 X06300   0.0000
     3 N03     29.5500   6.4308  65.2494   N.ar      1 X06300   0.0000
     4 N04     29.3535   9.8803  63.3079   N.pl3     1 X06300   0.0000
     5 N05     31.3994   7.1987  66.2193   N.pl3     1 X06300   0.0000
     6 C06     25.5131   4.9309  63.0437   C.ar      1 X06300   0.0000
     7 C07     25.6654   3.6513  63.6409   C.ar      1 X06300   0.0000
     8 C08     26.7821   3.3918  64.4917   C.ar      1 X06300   0.0000
     9 C09     27.7495   4.4000  64.7493   C.ar      1 X06300   0.0000
    10 C10     27.6147   5.7073  64.1485   C.ar      1 X06300   0.0000
    11 C11     26.4805   5.9550  63.2923   C.ar      1 X06300   0.0000
    12 C12     28.5576   6.6966  64.3710   C.ar      1 X06300   0.0000
    13 C13     29.4137   8.7677  63.9322   C.ar      1 X06300   0.0000
    14 C14     30.4511   7.4163  65.4081   C.ar      1 X06300   0.0000
    15 O15     28.7996   4.1164  65.5582   O.3       1 X06300   0.0000
    16 CL16    24.1567   5.2263  62.0104   Cl        1 X06300   0.0000
    17 H1      31.4492   6.3153  66.7167   H         1 X06300   0.0000
    18 H2      32.1095   7.9077  66.3719   H         1 X06300   0.0000
    19 H3      30.0615  10.5902  63.4664   H         1 X06300   0.0000
    20 H4      28.5977  10.0547  62.6533   H         1 X06300   0.0000
    21 H5      24.9317   2.8695  63.4501   H         1 X06300   0.0000
    22 H6      26.8938   2.4096  64.9485   H         1 X06300   0.0000
    23 H7      26.3593   6.9334  62.8296   H         1 X06300   0.0000
    24 H8      29.3217   3.3654  65.1718   H         1 X06300   0.0000
@<TRIPOS>BOND
     1     1    12   ar
     2     1    13   ar
     3     2    13   ar
     4     2    14   ar
     5     3    12   ar
     6     3    14   ar
     7     4    13    1
     8     5    14    1
     9     6     7   ar
    10     6    11   ar
    11     6    16    1
    12     7     8   ar
    13     8     9   ar
    14     9    10   ar
    15     9    15    1
    16    10    11   ar
    17    10    12    1
    18     5    17    1
    19     5    18    1
    20     4    19    1
    21     4    20    1
    22     7    21    1
    23     8    22    1
    24    11    23    1
    25    15    24    1
@<TRIPOS>SUBSTRUCTURE
     1 X06300      1 GROUP             0 A     X06     0  
@<TRIPOS>SET
CCDC_LIGAND STATIC ATOMS
24 1 2 3 4 5 6 7 8 9 \
10 11 12 13 14 15 16 17 18 19 \
20 21 22 23 24 
