@<TRIPOS>MOLECULE
A:N761298
    50    53     1     0     1
SMALL
NO_CHARGES
****
Generated from the CSD

@<TRIPOS>ATOM
     1 C2      28.4364   7.0963  64.5185   C.ar      1 N761298   0.0000
     2 C8      25.2607   4.1624  63.4899   C.2       1 N761298   0.0000
     3 C10     26.2487   9.7524  62.3492   C.3       1 N761298   0.0000
     4 C11     25.4924  10.3809  61.1972   C.3       1 N761298   0.0000
     5 C12     25.8394  11.8676  61.1577   C.3       1 N761298   0.0000
     6 C13     25.1258  12.5293  59.9775   C.3       1 N761298   0.0000
     7 C14     25.4731  11.8471  58.6575   C.3       1 N761298   0.0000
     8 C15     25.2168  10.3390  58.6928   C.3       1 N761298   0.0000
     9 C16     25.9017   9.6882  59.8907   C.3       1 N761298   0.0000
    10 C19     31.4765  11.1459  64.4511   C.ar      1 N761298   0.0000
    11 C20     31.5192  10.5377  65.7029   C.ar      1 N761298   0.0000
    12 N2      29.5895   7.5179  65.0798   N.pl3     1 N761298   0.0000
    13 C21     30.8767   9.3142  65.8848   C.ar      1 N761298   0.0000
    14 C22     30.1892   8.7077  64.8356   C.ar      1 N761298   0.0000
    15 N26     33.8153  11.5090  66.5043   N.pl3     1 N761298   0.0000
    16 N1      27.6692   7.9450  63.7954   N.ar      1 N761298   0.0000
    17 C6      26.5104   7.5491  63.2139   C.ar      1 N761298   0.0000
    18 O6      25.7657   8.4229  62.4978   O.3       1 N761298   0.0000
    19 C5      26.0638   6.1578  63.3715   C.ar      1 N761298   0.0000
    20 N7      24.9873   5.4071  62.9416   N.2       1 N761298   0.0000
    21 N9      26.4440   4.0593  64.2299   N.pl3     1 N761298   0.0000
    22 C4      26.9358   5.3319  64.1517   C.ar      1 N761298   0.0000
    23 N3      28.0807   5.8049  64.6893   N.ar      1 N761298   0.0000
    24 C17     30.1618   9.3122  63.5790   C.ar      1 N761298   0.0000
    25 C18     30.8045  10.5333  63.3892   C.ar      1 N761298   0.0000
    26 S23     32.2980  11.2462  66.9293   S.o2      1 N761298   0.0000
    27 O24     32.2767  10.4145  68.0909   O.2       1 N761298   0.0000
    28 O25     31.6427  12.4910  67.2005   O.2       1 N761298   0.0000
    29 H1      26.5271  12.0174  58.4430   H         1 N761298   0.0000
    30 H2      24.8662  12.2862  57.8671   H         1 N761298   0.0000
    31 H3      29.6412   8.8325  62.7515   H         1 N761298   0.0000
    32 H4      31.9697  12.1047  64.2982   H         1 N761298   0.0000
    33 H5      26.0719  10.3173  63.2633   H         1 N761298   0.0000
    34 H6      27.3156   9.7390  62.1313   H         1 N761298   0.0000
    35 H7      30.9127   8.8267  66.8579   H         1 N761298   0.0000
    36 H8      34.4559  11.9502  67.1565   H         1 N761298   0.0000
    37 H9      34.1389  11.2349  65.5821   H         1 N761298   0.0000
    38 H10     25.4253  13.5749  59.9246   H         1 N761298   0.0000
    39 H11     24.0501  12.4674  60.1351   H         1 N761298   0.0000
    40 H12     30.0438   6.8929  65.7379   H         1 N761298   0.0000
    41 H13     25.6152   8.6386  59.9385   H         1 N761298   0.0000
    42 H14     26.9812   9.7647  59.7694   H         1 N761298   0.0000
    43 H15     26.8351   3.2502  64.7017   H         1 N761298   0.0000
    44 H16     24.4216  10.2601  61.3544   H         1 N761298   0.0000
    45 H17     25.6025   9.8921  57.7777   H         1 N761298   0.0000
    46 H18     24.1442  10.1629  58.7586   H         1 N761298   0.0000
    47 H19     24.5924   3.3137  63.3522   H         1 N761298   0.0000
    48 H20     30.7835  11.0119  62.4113   H         1 N761298   0.0000
    49 H21     26.9158  11.9856  61.0429   H         1 N761298   0.0000
    50 H22     25.5194  12.3393  62.0856   H         1 N761298   0.0000
@<TRIPOS>BOND
     1     1    12    1
     2     1    16   ar
     3     1    23   ar
     4     2    20    2
     5     2    21    1
     6     3     4    1
     7     3    18    1
     8     4     5    1
     9     4     9    1
    10     5     6    1
    11     6     7    1
    12     7     8    1
    13     8     9    1
    14    10    11   ar
    15    10    25   ar
    16    11    13   ar
    17    11    26    1
    18    12    14    1
    19    13    14   ar
    20    14    24   ar
    21    15    26    1
    22    16    17   ar
    23    17    18    1
    24    17    19   ar
    25    19    20    1
    26    19    22   ar
    27    21    22    1
    28    22    23   ar
    29    24    25   ar
    30    26    27    2
    31    26    28    2
    32     7    29    1
    33     7    30    1
    34    24    31    1
    35    10    32    1
    36     3    33    1
    37     3    34    1
    38    13    35    1
    39    15    36    1
    40    15    37    1
    41     6    38    1
    42     6    39    1
    43    12    40    1
    44     9    41    1
    45     9    42    1
    46    21    43    1
    47     4    44    1
    48     8    45    1
    49     8    46    1
    50     2    47    1
    51    25    48    1
    52     5    49    1
    53     5    50    1
@<TRIPOS>SUBSTRUCTURE
     1 N761298     1 GROUP             0 A     N76     0  
@<TRIPOS>SET
CCDC_LIGAND STATIC ATOMS
50 1 2 3 4 5 6 7 8 9 \
10 11 12 13 14 15 16 17 18 19 \
20 21 22 23 24 25 26 27 28 29 \
30 31 32 33 34 35 36 37 38 39 \
40 41 42 43 44 45 46 47 48 49 \
50 
