@<TRIPOS>MOLECULE
A:25Z529
    37    39     1     0     1
SMALL
NO_CHARGES
****
Generated from the CSD

@<TRIPOS>ATOM
     1 C1      25.7818   9.5501  60.5453   C.ar      1 25Z529   0.0000
     2 F1      26.2847  10.7794  63.9986   F         1 25Z529   0.0000
     3 N1      28.7727   4.6194  65.4304   N.pl3     1 25Z529   0.0000
     4 O1      25.7547   4.7832  62.3814   O.2       1 25Z529   0.0000
     5 S1      28.5675   6.9168  64.2778   S.3       1 25Z529   0.0000
     6 C2      25.9922   9.6293  61.9914   C.ar      1 25Z529   0.0000
     7 F2      24.7144  11.4660  62.5683   F         1 25Z529   0.0000
     8 N2      30.3428   6.1943  66.1980   N.2       1 25Z529   0.0000
     9 C3      26.2187   8.3728  62.7050   C.ar      1 25Z529   0.0000
    10 F3      26.8785  11.7754  62.0668   F         1 25Z529   0.0000
    11 N3      27.0697   3.3316  64.3904   N.pl3     1 25Z529   0.0000
    12 C4      26.2423   7.0706  62.0262   C.ar      1 25Z529   0.0000
    13 C5      26.0225   7.0655  60.5722   C.ar      1 25Z529   0.0000
    14 C6      25.7970   8.2897  59.8525   C.ar      1 25Z529   0.0000
    15 C7      25.9683  10.9028  62.6500   C.3       1 25Z529   0.0000
    16 C8      26.4638   5.8758  62.7241   C.2       1 25Z529   0.0000
    17 C9      27.5105   5.6705  63.8140   C.2       1 25Z529   0.0000
    18 C10     29.3126   5.8698  65.4006   C.2       1 25Z529   0.0000
    19 C11     27.7556   4.5001  64.5424   C.2       1 25Z529   0.0000
    20 C12     31.1788   7.3352  66.1527   C.ar      1 25Z529   0.0000
    21 C13     31.4791   8.1451  64.9457   C.ar      1 25Z529   0.0000
    22 C14     32.3471   9.2987  65.0151   C.ar      1 25Z529   0.0000
    23 C15     32.9340   9.6737  66.2740   C.ar      1 25Z529   0.0000
    24 C16     32.6640   8.9065  67.4587   C.ar      1 25Z529   0.0000
    25 C17     31.7974   7.7540  67.3982   C.ar      1 25Z529   0.0000
    26 H1      31.6029   7.1859  68.3067   H         1 25Z529   0.0000
    27 H2      33.1155   9.1960  68.4065   H         1 25Z529   0.0000
    28 H3      25.6100  10.4657  59.9813   H         1 25Z529   0.0000
    29 H4      29.0913   3.8727  66.0396   H         1 25Z529   0.0000
    30 H5      26.3760   8.4041  63.7821   H         1 25Z529   0.0000
    31 H6      26.3124   3.2715  63.7173   H         1 25Z529   0.0000
    32 H7      27.3165   2.5218  64.9503   H         1 25Z529   0.0000
    33 H8      26.0305   6.1199  60.0321   H         1 25Z529   0.0000
    34 H9      25.6367   8.2624  58.7758   H         1 25Z529   0.0000
    35 H10     31.0375   7.8650  63.9905   H         1 25Z529   0.0000
    36 H11     32.5557   9.8813  64.1190   H         1 25Z529   0.0000
    37 H12     33.5865  10.5438  66.3294   H         1 25Z529   0.0000
@<TRIPOS>BOND
     1     1     6   ar
     2     1    14   ar
     3     2    15    1
     4     3    18    1
     5     3    19    1
     6     4    16    2
     7     5    17    1
     8     5    18    1
     9     6     9   ar
    10     6    15    1
    11     7    15    1
    12     8    18    2
    13     8    20    1
    14     9    12   ar
    15    10    15    1
    16    11    19    1
    17    12    13   ar
    18    12    16    1
    19    13    14   ar
    20    16    17    1
    21    17    19    2
    22    20    21   ar
    23    20    25   ar
    24    21    22   ar
    25    22    23   ar
    26    23    24   ar
    27    24    25   ar
    28    25    26    1
    29    24    27    1
    30     1    28    1
    31     3    29    1
    32     9    30    1
    33    11    31    1
    34    11    32    1
    35    13    33    1
    36    14    34    1
    37    21    35    1
    38    22    36    1
    39    23    37    1
@<TRIPOS>SUBSTRUCTURE
     1 25Z529      1 GROUP             0 A     25Z     0  
@<TRIPOS>SET
CCDC_LIGAND STATIC ATOMS
37 1 2 3 4 5 6 7 8 9 \
10 11 12 13 14 15 16 17 18 19 \
20 21 22 23 24 25 26 27 28 29 \
30 31 32 33 34 35 36 37 
