@<TRIPOS>MOLECULE
A:404299
    52    54     1     0     1
SMALL
NO_CHARGES
****
Generated from the CSD

@<TRIPOS>ATOM
     1 C1      29.1892   6.7126  64.5244   C.ar      1 404299   0.0000
     2 C2      28.2498   5.5723  64.6266   C.ar      1 404299   0.0000
     3 C3      27.0272   5.6404  63.8154   C.ar      1 404299   0.0000
     4 N4      26.7724   6.7065  62.9928   N.ar      1 404299   0.0000
     5 C5      27.6979   7.7230  62.9468   C.ar      1 404299   0.0000
     6 N6      28.8431   7.7156  63.6965   N.ar      1 404299   0.0000
     7 N7      28.2192   4.4171  65.3244   N.pl3     1 404299   0.0000
     8 N8      27.0528   3.6895  65.0140   N.2       1 404299   0.0000
     9 C9      26.3100   4.3720  64.1260   C.2       1 404299   0.0000
    10 C10     24.9999   4.0460  63.4925   C.3       1 404299   0.0000
    11 C11     25.1586   3.8583  61.9794   C.3       1 404299   0.0000
    12 C12     23.9367   5.0983  63.8155   C.3       1 404299   0.0000
    13 N13     30.3366   6.7465  65.2413   N.pl3     1 404299   0.0000
    14 C14     31.3452   7.7654  64.9857   C.3       1 404299   0.0000
    15 C15     31.3507   8.7947  66.0963   C.ar      1 404299   0.0000
    16 C16     31.0639  10.1222  65.8069   C.ar      1 404299   0.0000
    17 C17     31.0632  11.0708  66.8199   C.ar      1 404299   0.0000
    18 C18     31.3493  10.6889  68.1244   C.ar      1 404299   0.0000
    19 C19     31.6362   9.3634  68.4197   C.ar      1 404299   0.0000
    20 C20     31.6319   8.4169  67.4057   C.ar      1 404299   0.0000
    21 N21     27.5307   8.8251  62.1699   N.pl3     1 404299   0.0000
    22 C22     26.7211   8.8911  60.9647   C.3       1 404299   0.0000
    23 C23     25.3368   9.4325  61.3034   C.3       1 404299   0.0000
    24 C24     25.4444  10.5723  62.2895   C.3       1 404299   0.0000
    25 C25     26.5872   7.5333  60.2855   C.3       1 404299   0.0000
    26 O26     25.3384   6.9584  60.6880   O.3       1 404299   0.0000
    27 H1      28.9340   4.1156  65.9790   H         1 404299   0.0000
    28 H2      30.4960   6.0537  65.9658   H         1 404299   0.0000
    29 H3      31.1246   8.2591  64.0404   H         1 404299   0.0000
    30 H4      32.3251   7.2938  64.9290   H         1 404299   0.0000
    31 H5      30.8391  10.4194  64.7836   H         1 404299   0.0000
    32 H6      30.8389  12.1120  66.5927   H         1 404299   0.0000
    33 H7      31.3485  11.4332  68.9193   H         1 404299   0.0000
    34 H8      31.8635   9.0679  69.4429   H         1 404299   0.0000
    35 H9      31.8493   7.3748  67.6351   H         1 404299   0.0000
    36 H10     28.0110   9.6727  62.4550   H         1 404299   0.0000
    37 H11     24.6609   3.0980  63.9076   H         1 404299   0.0000
    38 H12     25.8546   3.0434  61.7858   H         1 404299   0.0000
    39 H13     24.1910   3.6214  61.5395   H         1 404299   0.0000
    40 H14     25.5430   4.7766  61.5381   H         1 404299   0.0000
    41 H15     24.2633   6.0694  63.4464   H         1 404299   0.0000
    42 H16     22.9979   4.8248  63.3363   H         1 404299   0.0000
    43 H17     23.7925   5.1495  64.8937   H         1 404299   0.0000
    44 H18     24.5947   7.5553  60.4111   H         1 404299   0.0000
    45 H19     27.1979   9.5786  60.2676   H         1 404299   0.0000
    46 H20     24.7367   8.6356  61.7401   H         1 404299   0.0000
    47 H21     24.8584   9.7897  60.3927   H         1 404299   0.0000
    48 H22     26.0419  11.3726  61.8554   H         1 404299   0.0000
    49 H23     24.4485  10.9474  62.5208   H         1 404299   0.0000
    50 H24     25.9202  10.2184  63.2029   H         1 404299   0.0000
    51 H25     27.4076   6.8852  60.5900   H         1 404299   0.0000
    52 H26     26.6052   7.6577  59.2038   H         1 404299   0.0000
@<TRIPOS>BOND
     1     1     2   ar
     2     1     6   ar
     3     1    13    1
     4     2     3   ar
     5     2     7    1
     6     3     4   ar
     7     3     9    1
     8     4     5   ar
     9     5     6   ar
    10     5    21    1
    11     7     8    1
    12     8     9    2
    13     9    10    1
    14    10    11    1
    15    10    12    1
    16    13    14    1
    17    14    15    1
    18    15    16   ar
    19    15    20   ar
    20    16    17   ar
    21    17    18   ar
    22    18    19   ar
    23    19    20   ar
    24    21    22    1
    25    22    23    1
    26    22    25    1
    27    23    24    1
    28    25    26    1
    29     7    27    1
    30    13    28    1
    31    14    29    1
    32    14    30    1
    33    16    31    1
    34    17    32    1
    35    18    33    1
    36    19    34    1
    37    20    35    1
    38    21    36    1
    39    10    37    1
    40    11    38    1
    41    11    39    1
    42    11    40    1
    43    12    41    1
    44    12    42    1
    45    12    43    1
    46    26    44    1
    47    22    45    1
    48    23    46    1
    49    23    47    1
    50    24    48    1
    51    24    49    1
    52    24    50    1
    53    25    51    1
    54    25    52    1
@<TRIPOS>SUBSTRUCTURE
     1 404299      1 GROUP             0 A     404     0  
@<TRIPOS>SET
CCDC_LIGAND STATIC ATOMS
52 1 2 3 4 5 6 7 8 9 \
10 11 12 13 14 15 16 17 18 19 \
20 21 22 23 24 25 26 27 28 29 \
30 31 32 33 34 35 36 37 38 39 \
40 41 42 43 44 45 46 47 48 49 \
50 51 52 
