@<TRIPOS>MOLECULE
A:AEQ301
    35    36     1     0     1
SMALL
NO_CHARGES
****
Generated from the CSD

@<TRIPOS>ATOM
     1 C6      25.7289   6.4111  61.8068   C.ar      1 AEQ301   0.0000
     2 C1      23.6488   5.5994  63.8328   C.3       1 AEQ301   0.0000
     3 C5      25.5794   8.7807  60.8003   C.3       1 AEQ301   0.0000
     4 C4      25.0580   7.9528  59.6117   C.3       1 AEQ301   0.0000
     5 C3      23.9486   7.0165  60.1061   C.3       1 AEQ301   0.0000
     6 C2      22.7923   4.3820  64.2983   C.3       1 AEQ301   0.0000
     7 C7      26.3550   7.7419  61.5913   C.ar      1 AEQ301   0.0000
     8 C9      28.3171   6.9193  62.7465   C.ar      1 AEQ301   0.0000
     9 O       22.2641   5.7247  61.9343   O.2       1 AEQ301   0.0000
    10 C8      27.6521   7.9729  62.0598   C.ar      1 AEQ301   0.0000
    11 C10     29.7110   7.1573  63.2023   C.2       1 AEQ301   0.0000
    12 C11     31.7752   8.1605  63.2206   C.3       1 AEQ301   0.0000
    13 C13     26.4351   5.4189  62.4886   C.ar      1 AEQ301   0.0000
    14 C12     27.7320   5.6212  62.9547   C.ar      1 AEQ301   0.0000
    15 O2      30.3891   6.2121  63.6407   O.2       1 AEQ301   0.0000
    16 O1      30.3404   8.4543  63.0652   O.3       1 AEQ301   0.0000
    17 N       24.3674   6.3501  61.4008   N.am      1 AEQ301   0.0000
    18 C       23.4167   5.9008  62.3248   C.2       1 AEQ301   0.0000
    19 H1      24.7025   5.3755  63.9930   H         1 AEQ301   0.0000
    20 H2      23.3708   6.4748  64.4178   H         1 AEQ301   0.0000
    21 H3      24.7590   9.1928  61.3859   H         1 AEQ301   0.0000
    22 H4      26.2282   9.5888  60.4655   H         1 AEQ301   0.0000
    23 H5      25.8721   7.3645  59.1910   H         1 AEQ301   0.0000
    24 H6      24.6600   8.6198  58.8484   H         1 AEQ301   0.0000
    25 H7      23.7595   6.2531  59.3529   H         1 AEQ301   0.0000
    26 H8      23.0400   7.5926  60.2752   H         1 AEQ301   0.0000
    27 H9      23.0684   3.5015  63.7199   H         1 AEQ301   0.0000
    28 H10     22.9738   4.1934  65.3554   H         1 AEQ301   0.0000
    29 H11     21.7367   4.6009  64.1447   H         1 AEQ301   0.0000
    30 H12     28.1402   8.9338  61.9032   H         1 AEQ301   0.0000
    31 H13     32.0892   7.4641  62.4445   H         1 AEQ301   0.0000
    32 H14     32.3463   9.0836  63.1328   H         1 AEQ301   0.0000
    33 H15     31.9509   7.7166  64.1994   H         1 AEQ301   0.0000
    34 H16     25.9570   4.4559  62.6616   H         1 AEQ301   0.0000
    35 H17     28.2821   4.8273  63.4575   H         1 AEQ301   0.0000
@<TRIPOS>BOND
     1     1     7   ar
     2     1    13   ar
     3     1    17    1
     4     2     6    1
     5     2    18    1
     6     3     4    1
     7     3     7    1
     8     4     5    1
     9     5    17    1
    10     7    10   ar
    11     8    10   ar
    12     8    11    1
    13     8    14   ar
    14     9    18    2
    15    11    15    2
    16    11    16    1
    17    12    16    1
    18    13    14   ar
    19    17    18   am
    20     2    19    1
    21     2    20    1
    22     3    21    1
    23     3    22    1
    24     4    23    1
    25     4    24    1
    26     5    25    1
    27     5    26    1
    28     6    27    1
    29     6    28    1
    30     6    29    1
    31    10    30    1
    32    12    31    1
    33    12    32    1
    34    12    33    1
    35    13    34    1
    36    14    35    1
@<TRIPOS>SUBSTRUCTURE
     1 AEQ301      1 GROUP             0 A     AEQ     0  
@<TRIPOS>SET
CCDC_LIGAND STATIC ATOMS
35 1 2 3 4 5 6 7 8 9 \
10 11 12 13 14 15 16 17 18 19 \
20 21 22 23 24 25 26 27 28 29 \
30 31 32 33 34 35 
