@<TRIPOS>MOLECULE
A:04Z499
    43    45     1     0     1
SMALL
NO_CHARGES
****
Generated from the CSD

@<TRIPOS>ATOM
     1 C1      24.5372   8.5163  60.5739   C.ar      1 04Z499   0.0000
     2 N1      28.3125   4.3192  65.4042   N.2       1 04Z499   0.0000
     3 O1      34.4801  10.1083  64.0180   O.2       1 04Z499   0.0000
     4 S1      27.6497   6.4586  64.1123   S.3       1 04Z499   0.0000
     5 C2      23.5453   7.9145  61.4635   C.ar      1 04Z499   0.0000
     6 N2      26.7367   2.7383  64.6433   N.pl3     1 04Z499   0.0000
     7 O2      33.8367  11.2246  66.3602   O.2       1 04Z499   0.0000
     8 S2      33.2761  10.6671  64.9302   S.o2      1 04Z499   0.0000
     9 C3      23.8780   6.7452  62.2352   C.ar      1 04Z499   0.0000
    10 N3      29.7080   6.1075  65.9473   N.pl3     1 04Z499   0.0000
    11 O3      24.9279   3.7817  62.8051   O.2       1 04Z499   0.0000
    12 C4      26.1956   6.7687  61.2358   C.ar      1 04Z499   0.0000
    13 N4      32.5420  11.8009  64.1562   N.pl3     1 04Z499   0.0000
    14 C5      25.8777   7.9308  60.4609   C.ar      1 04Z499   0.0000
    15 O6      22.2607   8.4568  61.5940   O.3       1 04Z499   0.0000
    16 C7      21.8373   9.5395  60.9394   C.3       1 04Z499   0.0000
    17 C10     25.2108   6.1559  62.1334   C.ar      1 04Z499   0.0000
    18 C11     25.5986   4.9495  62.9295   C.2       1 04Z499   0.0000
    19 C12     26.7594   5.0223  63.8725   C.2       1 04Z499   0.0000
    20 C13     27.2479   3.9841  64.6417   C.2       1 04Z499   0.0000
    21 C14     28.6472   5.6038  65.2370   C.2       1 04Z499   0.0000
    22 C15     30.5108   7.1983  65.6700   C.ar      1 04Z499   0.0000
    23 C16     30.3535   8.0691  64.4777   C.ar      1 04Z499   0.0000
    24 C17     31.2180   9.1609  64.2475   C.ar      1 04Z499   0.0000
    25 C18     32.2771   9.4414  65.1916   C.ar      1 04Z499   0.0000
    26 C19     32.4446   8.6044  66.3744   C.ar      1 04Z499   0.0000
    27 C20     31.5780   7.5027  66.6098   C.ar      1 04Z499   0.0000
    28 H1      24.2804   9.4013  59.9937   H         1 04Z499   0.0000
    29 H2      25.9364   2.5173  64.0595   H         1 04Z499   0.0000
    30 H3      27.1518   2.0202  65.2284   H         1 04Z499   0.0000
    31 H4      23.1354   6.2998  62.8955   H         1 04Z499   0.0000
    32 H5      29.9363   5.6064  66.7999   H         1 04Z499   0.0000
    33 H6      27.1896   6.3309  61.1567   H         1 04Z499   0.0000
    34 H7      31.7500  12.2739  64.5795   H         1 04Z499   0.0000
    35 H8      32.8554  12.0671  63.2282   H         1 04Z499   0.0000
    36 H9      26.6199   8.3730  59.7979   H         1 04Z499   0.0000
    37 H10     21.8953   9.3610  59.8667   H         1 04Z499   0.0000
    38 H11     20.8057   9.7511  61.2169   H         1 04Z499   0.0000
    39 H12     22.4652  10.3901  61.2004   H         1 04Z499   0.0000
    40 H13     29.5552   7.8614  63.7668   H         1 04Z499   0.0000
    41 H14     31.0886   9.7870  63.3660   H         1 04Z499   0.0000
    42 H15     33.2408   8.8257  67.0837   H         1 04Z499   0.0000
    43 H16     31.7136   6.8849  67.4962   H         1 04Z499   0.0000
@<TRIPOS>BOND
     1     1     5   ar
     2     1    14   ar
     3     2    20    1
     4     2    21    2
     5     3     8    2
     6     4    19    1
     7     4    21    1
     8     5     9   ar
     9     5    15    1
    10     6    20    1
    11     7     8    2
    12     8    13    1
    13     8    25    1
    14     9    17   ar
    15    10    21    1
    16    10    22    1
    17    11    18    2
    18    12    14   ar
    19    12    17   ar
    20    15    16    1
    21    17    18    1
    22    18    19    1
    23    19    20    2
    24    22    23   ar
    25    22    27   ar
    26    23    24   ar
    27    24    25   ar
    28    25    26   ar
    29    26    27   ar
    30     1    28    1
    31     6    29    1
    32     6    30    1
    33     9    31    1
    34    10    32    1
    35    12    33    1
    36    13    34    1
    37    13    35    1
    38    14    36    1
    39    16    37    1
    40    16    38    1
    41    16    39    1
    42    23    40    1
    43    24    41    1
    44    26    42    1
    45    27    43    1
@<TRIPOS>SUBSTRUCTURE
     1 04Z499      1 GROUP             0 A     04Z     0  
@<TRIPOS>SET
CCDC_LIGAND STATIC ATOMS
43 1 2 3 4 5 6 7 8 9 \
10 11 12 13 14 15 16 17 18 19 \
20 21 22 23 24 25 26 27 28 29 \
30 31 32 33 34 35 36 37 38 39 \
40 41 42 43 
