@<TRIPOS>MOLECULE
A:48K301
    49    51     1     0     1
SMALL
NO_CHARGES
****
Generated from the CSD

@<TRIPOS>ATOM
     1 S       33.6101  10.9161  65.0126   S.o2      1 48K301   0.0000
     2 C1      30.8012  13.6641  69.0850   C.3       1 48K301   0.0000
     3 O1      34.3371  10.6918  63.7988   O.2       1 48K301   0.0000
     4 C2      32.3199  14.8762  67.6032   C.3       1 48K301   0.0000
     5 N2      32.9340  12.3786  64.8916   N.pl3     1 48K301   0.0000
     6 O2      34.3066  10.8717  66.2625   O.2       1 48K301   0.0000
     7 C3      31.5536  12.6003  66.9844   C.3       1 48K301   0.0000
     8 N3      29.3483   6.8035  65.0963   N.pl3     1 48K301   0.0000
     9 O3      28.5465   4.2445  65.8735   O.2       1 48K301   0.0000
    10 C4      31.6262  12.7150  65.4715   C.3       1 48K301   0.0000
    11 N4      26.7318   3.5244  64.5742   N.am      1 48K301   0.0000
    12 C5      32.3207   9.7289  65.0627   C.ar      1 48K301   0.0000
    13 C6      32.1792   8.9150  66.1740   C.ar      1 48K301   0.0000
    14 C7      31.2113   7.9278  66.1701   C.ar      1 48K301   0.0000
    15 C8      30.3541   7.7966  65.0879   C.ar      1 48K301   0.0000
    16 C9      28.3359   6.7189  64.2481   C.2       1 48K301   0.0000
    17 C10     27.4706   5.6525  64.1946   C.2       1 48K301   0.0000
    18 C11     27.6749   4.3958  65.0027   C.2       1 48K301   0.0000
    19 C12     25.9053   4.1025  63.5878   C.ar      1 48K301   0.0000
    20 C13     24.8580   3.5383  62.8803   C.ar      1 48K301   0.0000
    21 C14     24.1531   4.3367  61.9823   C.ar      1 48K301   0.0000
    22 C15     24.5154   5.6712  61.7848   C.ar      1 48K301   0.0000
    23 C16     25.6153   6.2123  62.4460   C.ar      1 48K301   0.0000
    24 C17     26.3223   5.4300  63.3579   C.ar      1 48K301   0.0000
    25 C18     30.5166   8.6175  63.9784   C.ar      1 48K301   0.0000
    26 C19     31.5014   9.5827  63.9632   C.ar      1 48K301   0.0000
    27 N1      31.2086  13.8871  67.6723   N.3       1 48K301   0.0000
    28 H1      33.4383  13.1021  64.3892   H         1 48K301   0.0000
    29 H2      32.5227  12.2643  67.3502   H         1 48K301   0.0000
    30 H3      30.7943  11.8615  67.2367   H         1 48K301   0.0000
    31 H4      29.4079   6.0915  65.8173   H         1 48K301   0.0000
    32 H5      30.8830  12.0433  65.0444   H         1 48K301   0.0000
    33 H6      31.3877  13.7416  65.1974   H         1 48K301   0.0000
    34 H7      26.6319   2.5751  64.9191   H         1 48K301   0.0000
    35 H8      30.4665  14.6050  69.5192   H         1 48K301   0.0000
    36 H9      29.9890  12.9395  69.1185   H         1 48K301   0.0000
    37 H10     31.6500  13.2843  69.6519   H         1 48K301   0.0000
    38 H11     33.1748  14.5014  68.1641   H         1 48K301   0.0000
    39 H12     32.6063  15.0283  66.5636   H         1 48K301   0.0000
    40 H13     31.9913  15.8220  68.0313   H         1 48K301   0.0000
    41 H14     24.5907   2.4923  63.0225   H         1 48K301   0.0000
    42 H15     23.3133   3.9173  61.4302   H         1 48K301   0.0000
    43 H16     23.9326   6.2941  61.1078   H         1 48K301   0.0000
    44 H17     25.9209   7.2394  62.2520   H         1 48K301   0.0000
    45 H18     29.8625   8.4979  63.1159   H         1 48K301   0.0000
    46 H19     31.6307  10.2229  63.0918   H         1 48K301   0.0000
    47 H20     32.8232   9.0511  67.0416   H         1 48K301   0.0000
    48 H21     31.1218   7.2516  67.0190   H         1 48K301   0.0000
    49 H22     28.1794   7.5419  63.5524   H         1 48K301   0.0000
@<TRIPOS>BOND
     1     1     3    2
     2     1     5    1
     3     1     6    2
     4     1    12    1
     5     2    27    1
     6     4    27    1
     7     5    10    1
     8     7    10    1
     9     7    27    1
    10     8    15    1
    11     8    16    1
    12     9    18    2
    13    11    18   am
    14    11    19    1
    15    12    13   ar
    16    12    26   ar
    17    13    14   ar
    18    14    15   ar
    19    15    25   ar
    20    16    17    2
    21    17    18    1
    22    17    24    1
    23    19    20   ar
    24    19    24   ar
    25    20    21   ar
    26    21    22   ar
    27    22    23   ar
    28    23    24   ar
    29    25    26   ar
    30     5    28    1
    31     7    29    1
    32     7    30    1
    33     8    31    1
    34    10    32    1
    35    10    33    1
    36    11    34    1
    37     2    35    1
    38     2    36    1
    39     2    37    1
    40     4    38    1
    41     4    39    1
    42     4    40    1
    43    20    41    1
    44    21    42    1
    45    22    43    1
    46    23    44    1
    47    25    45    1
    48    26    46    1
    49    13    47    1
    50    14    48    1
    51    16    49    1
@<TRIPOS>SUBSTRUCTURE
     1 48K301      1 GROUP             0 A     48K     0  
@<TRIPOS>SET
CCDC_LIGAND STATIC ATOMS
49 1 2 3 4 5 6 7 8 9 \
10 11 12 13 14 15 16 17 18 19 \
20 21 22 23 24 25 26 27 28 29 \
30 31 32 33 34 35 36 37 38 39 \
40 41 42 43 44 45 46 47 48 49 
