@<TRIPOS>MOLECULE
A:1RO301
    37    40     1     0     1
SMALL
NO_CHARGES
****
Generated from the CSD

@<TRIPOS>ATOM
     1 O1      26.9801   7.7139  61.7125   O.2       1 1RO301   0.0000
     2 C13     25.7962   7.7293  61.2296   C.2       1 1RO301   0.0000
     3 N2      25.5704   8.5745  60.2445   N.2       1 1RO301   0.0000
     4 C15     24.2974   8.4816  59.8399   C.2       1 1RO301   0.0000
     5 N3      23.9533   9.3252  58.8523   N.pl3     1 1RO301   0.0000
     6 C18     24.8588  10.4326  58.5298   C.3       1 1RO301   0.0000
     7 C19     25.6971  10.9360  59.6986   C.2       1 1RO301   0.0000
     8 C23     27.0603  10.9245  59.9970   C.2       1 1RO301   0.0000
     9 C22     27.3678  11.5141  61.2329   C.2       1 1RO301   0.0000
    10 C21     26.2857  12.0144  61.9584   C.2       1 1RO301   0.0000
    11 S2      24.8681  11.7012  61.0097   S.3       1 1RO301   0.0000
    12 S1      23.3139   7.3013  60.6756   S.3       1 1RO301   0.0000
    13 C12     24.6743   6.8659  61.6750   C.2       1 1RO301   0.0000
    14 C11     24.7008   5.8466  62.7600   C.2       1 1RO301   0.0000
    15 C1      26.0059   5.6740  63.4566   C.ar      1 1RO301   0.0000
    16 C6      26.4226   4.4356  63.9551   C.ar      1 1RO301   0.0000
    17 C5      27.6618   4.2996  64.5950   C.ar      1 1RO301   0.0000
    18 C4      28.5089   5.3972  64.7445   C.ar      1 1RO301   0.0000
    19 N1      29.7145   5.3085  65.3551   N.ar      1 1RO301   0.0000
    20 C9      30.5079   6.3883  65.4838   C.ar      1 1RO301   0.0000
    21 C8      30.1312   7.6467  65.0028   C.ar      1 1RO301   0.0000
    22 C7      28.9038   7.8185  64.3623   C.ar      1 1RO301   0.0000
    23 C3      28.0710   6.7126  64.2203   C.ar      1 1RO301   0.0000
    24 C2      26.8308   6.7962  63.6036   C.ar      1 1RO301   0.0000
    25 H1      23.8208   5.2636  63.0276   H         1 1RO301   0.0000
    26 H2      23.0858   9.1987  58.3407   H         1 1RO301   0.0000
    27 H3      24.2593  11.2635  58.1607   H         1 1RO301   0.0000
    28 H4      25.5370  10.0981  57.7462   H         1 1RO301   0.0000
    29 H5      27.8128  10.4990  59.3347   H         1 1RO301   0.0000
    30 H6      28.3898  11.5774  61.6036   H         1 1RO301   0.0000
    31 H7      26.3239  12.5051  62.9298   H         1 1RO301   0.0000
    32 H8      25.7761   3.5662  63.8446   H         1 1RO301   0.0000
    33 H9      27.9663   3.3273  64.9794   H         1 1RO301   0.0000
    34 H10     31.4724   6.2789  65.9774   H         1 1RO301   0.0000
    35 H11     30.7997   8.4970  65.1291   H         1 1RO301   0.0000
    36 H12     28.6047   8.7943  63.9825   H         1 1RO301   0.0000
    37 H13     26.4903   7.7586  63.2244   H         1 1RO301   0.0000
@<TRIPOS>BOND
     1     1     2    2
     2     2     3    1
     3     2    13    1
     4     3     4    2
     5     4     5    1
     6     4    12    1
     7     5     6    1
     8     6     7    1
     9     7     8    2
    10     7    11    1
    11     8     9    1
    12     9    10    2
    13    10    11    1
    14    12    13    1
    15    13    14    2
    16    14    15    1
    17    15    16   ar
    18    15    24   ar
    19    16    17   ar
    20    17    18   ar
    21    18    19   ar
    22    18    23   ar
    23    19    20   ar
    24    20    21   ar
    25    21    22   ar
    26    22    23   ar
    27    23    24   ar
    28    14    25    1
    29     5    26    1
    30     6    27    1
    31     6    28    1
    32     8    29    1
    33     9    30    1
    34    10    31    1
    35    16    32    1
    36    17    33    1
    37    20    34    1
    38    21    35    1
    39    22    36    1
    40    24    37    1
@<TRIPOS>SUBSTRUCTURE
     1 1RO301      1 GROUP             0 A     1RO     0  
@<TRIPOS>SET
CCDC_LIGAND STATIC ATOMS
37 1 2 3 4 5 6 7 8 9 \
10 11 12 13 14 15 16 17 18 19 \
20 21 22 23 24 25 26 27 28 29 \
30 31 32 33 34 35 36 37 
