@<TRIPOS>MOLECULE
A:SZL1299
    17    18     1     0     1
SMALL
NO_CHARGES
****
Generated from the CSD

@<TRIPOS>ATOM
     1 C1      26.6858   5.4142  64.0501   C.ar      1 SZL1299   0.0000
     2 N4      25.7294   4.9238  63.3179   N.2       1 SZL1299   0.0000
     3 C9      25.6500   3.6197  63.4897   C.2       1 SZL1299   0.0000
     4 N5      26.5676   3.2485  64.4034   N.pl3     1 SZL1299   0.0000
     5 C2      27.2019   4.3779  64.7533   C.ar      1 SZL1299   0.0000
     6 N6      28.1965   4.6137  65.6413   N.ar      1 SZL1299   0.0000
     7 C10     28.7042   5.8473  65.8386   C.ar      1 SZL1299   0.0000
     8 N7      28.1611   6.8838  65.0894   N.ar      1 SZL1299   0.0000
     9 C3      27.1444   6.6617  64.2633   C.ar      1 SZL1299   0.0000
    10 O8      26.5797   7.6365  63.5379   O.3       1 SZL1299   0.0000
    11 C11     27.1032   8.9060  63.7258   C.3       1 SZL1299   0.0000
    12 H1      28.1605   8.9049  63.4647   H         1 SZL1299   0.0000
    13 H2      26.5733   9.6147  63.0911   H         1 SZL1299   0.0000
    14 H3      26.9872   9.1957  64.7691   H         1 SZL1299   0.0000
    15 H4      29.5056   6.0235  66.5546   H         1 SZL1299   0.0000
    16 H5      26.7424   2.3119  64.7533   H         1 SZL1299   0.0000
    17 H6      24.9575   2.9529  62.9780   H         1 SZL1299   0.0000
@<TRIPOS>BOND
     1     1     2    1
     2     1     5   ar
     3     1     9   ar
     4     2     3    2
     5     3     4    1
     6     4     5    1
     7     5     6   ar
     8     6     7   ar
     9     7     8   ar
    10     8     9   ar
    11     9    10    1
    12    10    11    1
    13    11    12    1
    14    11    13    1
    15    11    14    1
    16     7    15    1
    17     4    16    1
    18     3    17    1
@<TRIPOS>SUBSTRUCTURE
     1 SZL1299     1 GROUP             0 A     SZL     0  
@<TRIPOS>SET
CCDC_LIGAND STATIC ATOMS
17 1 2 3 4 5 6 7 8 9 \
10 11 12 13 14 15 16 17 
