@<TRIPOS>MOLECULE
A:C621297
    33    35     1     0     1
SMALL
NO_CHARGES
****
Generated from the CSD

@<TRIPOS>ATOM
     1 O4      33.6925  11.0298  66.1036   O.2       1 C621297   0.0000
     2 S2      33.2396  10.6973  64.7137   S.o2      1 C621297   0.0000
     3 O3      34.3901  10.1755  63.9249   O.2       1 C621297   0.0000
     4 N6      32.6558  12.0505  63.9928   N.pl3     1 C621297   0.0000
     5 C16     31.9757   9.4517  64.7800   C.ar      1 C621297   0.0000
     6 C15     30.9576   9.4529  63.8397   C.ar      1 C621297   0.0000
     7 C14     29.9829   8.4638  63.8700   C.ar      1 C621297   0.0000
     8 C13     30.0184   7.4617  64.8449   C.ar      1 C621297   0.0000
     9 C18     31.0464   7.4373  65.7806   C.ar      1 C621297   0.0000
    10 C17     32.0321   8.4343  65.7511   C.ar      1 C621297   0.0000
    11 C4      28.9744   6.4425  64.8516   C.2       1 C621297   0.0000
    12 O2      27.8142   6.5110  64.1504   O.3       1 C621297   0.0000
    13 C3      28.9933   5.2540  65.5049   C.2       1 C621297   0.0000
    14 C2      27.8431   4.6153  65.1959   C.2       1 C621297   0.0000
    15 C1      27.1337   5.4219  64.3408   C.2       1 C621297   0.0000
    16 C6      25.8414   5.1226  63.7495   C.2       1 C621297   0.0000
    17 C7      25.4031   5.8107  62.5931   C.2       1 C621297   0.0000
    18 S1      26.3679   6.8195  61.6332   S.3       1 C621297   0.0000
    19 C9      25.1155   7.1348  60.5922   C.2       1 C621297   0.0000
    20 N2      23.9723   6.4823  60.9497   N.am      1 C621297   0.0000
    21 C8      24.1150   5.7293  62.0838   C.2       1 C621297   0.0000
    22 O1      23.2095   5.0670  62.5940   O.2       1 C621297   0.0000
    23 O5      25.2103   7.8688  59.6060   O.2       1 C621297   0.0000
    24 H1      32.8414   8.4215  66.4796   H         1 C621297   0.0000
    25 H2      29.7850   4.8846  66.1549   H         1 C621297   0.0000
    26 H3      25.2046   4.3625  64.1996   H         1 C621297   0.0000
    27 H4      31.0859   6.6494  66.5313   H         1 C621297   0.0000
    28 H5      32.3038  12.0073  63.0418   H         1 C621297   0.0000
    29 H6      32.6467  12.9309  64.4978   H         1 C621297   0.0000
    30 H7      29.1850   8.4687  63.1289   H         1 C621297   0.0000
    31 H8      23.1042   6.5484  60.4279   H         1 C621297   0.0000
    32 H9      30.9217  10.2294  63.0771   H         1 C621297   0.0000
    33 H10     27.5343   3.6364  65.5598   H         1 C621297   0.0000
@<TRIPOS>BOND
     1     1     2    2
     2     2     3    2
     3     2     4    1
     4     2     5    1
     5     5     6   ar
     6     5    10   ar
     7     6     7   ar
     8     7     8   ar
     9     8     9   ar
    10     8    11    1
    11     9    10   ar
    12    11    12    1
    13    11    13    2
    14    12    15    1
    15    13    14    1
    16    14    15    2
    17    15    16    1
    18    16    17    2
    19    17    18    1
    20    17    21    1
    21    18    19    1
    22    19    20   am
    23    19    23    2
    24    20    21   am
    25    21    22    2
    26    10    24    1
    27    13    25    1
    28    16    26    1
    29     9    27    1
    30     4    28    1
    31     4    29    1
    32     7    30    1
    33    20    31    1
    34     6    32    1
    35    14    33    1
@<TRIPOS>SUBSTRUCTURE
     1 C621297     1 GROUP             0 A     C62     0  
@<TRIPOS>SET
CCDC_LIGAND STATIC ATOMS
33 1 2 3 4 5 6 7 8 9 \
10 11 12 13 14 15 16 17 18 19 \
20 21 22 23 24 25 26 27 28 29 \
30 31 32 33 
