@<TRIPOS>MOLECULE
A:DT51297
    47    50     1     0     1
SMALL
NO_CHARGES
****
Generated from the CSD

@<TRIPOS>ATOM
     1 N6      34.0827  11.2729  66.1617   N.pl3     1 DT51297   0.0000
     2 S1      33.5691  10.8231  64.7331   S.o2      1 DT51297   0.0000
     3 O2      32.9555  11.9663  64.0477   O.2       1 DT51297   0.0000
     4 O3      34.6862  10.3172  63.9431   O.2       1 DT51297   0.0000
     5 C16     32.3744   9.5846  64.8986   C.ar      1 DT51297   0.0000
     6 C15     32.0804   9.0648  66.1456   C.ar      1 DT51297   0.0000
     7 C17     31.6960   9.1238  63.7615   C.ar      1 DT51297   0.0000
     8 C18     30.7237   8.1383  63.8785   C.ar      1 DT51297   0.0000
     9 C14     31.1210   8.0641  66.2687   C.ar      1 DT51297   0.0000
    10 C13     30.4049   7.6228  65.1377   C.ar      1 DT51297   0.0000
    11 N5      29.5262   6.5855  65.2757   N.pl3     1 DT51297   0.0000
    12 C9      28.3678   6.4023  64.5016   C.2       1 DT51297   0.0000
    13 N2      27.7734   5.2041  64.5206   N.pl3     1 DT51297   0.0000
    14 C10     26.6651   4.9587  63.8420   C.2       1 DT51297   0.0000
    15 N1      26.0764   5.8865  63.0815   N.2       1 DT51297   0.0000
    16 N4      26.3407   3.6762  63.9860   N.2       1 DT51297   0.0000
    17 C11     27.2801   3.1233  64.8043   C.2       1 DT51297   0.0000
    18 N3      28.1520   4.1086  65.1452   N.2       1 DT51297   0.0000
    19 C8      27.7448   7.4608  63.7625   C.2       1 DT51297   0.0000
    20 C7      26.5752   7.1473  63.0224   C.2       1 DT51297   0.0000
    21 O1      25.8749   8.0857  62.2876   O.3       1 DT51297   0.0000
    22 C1      26.5320   9.2749  62.1073   C.3       1 DT51297   0.0000
    23 C2      25.9554  10.2957  63.0966   C.3       1 DT51297   0.0000
    24 C3      26.5471  11.6896  62.8358   C.3       1 DT51297   0.0000
    25 C4      26.2127  12.1349  61.4100   C.3       1 DT51297   0.0000
    26 C5      26.8166  11.1388  60.4191   C.3       1 DT51297   0.0000
    27 C6      26.2338   9.7447  60.6728   C.3       1 DT51297   0.0000
    28 H1      27.3239   2.0838  65.1258   H         1 DT51297   0.0000
    29 H2      28.1545   8.4698  63.7687   H         1 DT51297   0.0000
    30 H3      27.6285  11.6523  62.9590   H         1 DT51297   0.0000
    31 H4      26.1253  12.4002  63.5451   H         1 DT51297   0.0000
    32 H5      26.1983   9.9874  64.1124   H         1 DT51297   0.0000
    33 H6      24.8736  10.3377  62.9789   H         1 DT51297   0.0000
    34 H7      25.1552   9.7775  60.5258   H         1 DT51297   0.0000
    35 H8      26.6749   9.0408  59.9686   H         1 DT51297   0.0000
    36 H9      26.6286  13.1252  61.2304   H         1 DT51297   0.0000
    37 H10     25.1317  12.1665  61.2820   H         1 DT51297   0.0000
    38 H11     27.6033   9.1518  62.2591   H         1 DT51297   0.0000
    39 H12     27.8974  11.1089  60.5484   H         1 DT51297   0.0000
    40 H13     26.5811  11.4507  59.4026   H         1 DT51297   0.0000
    41 H14     31.9319   9.5398  62.7831   H         1 DT51297   0.0000
    42 H15     30.2115   7.7685  62.9915   H         1 DT51297   0.0000
    43 H16     30.9227   7.6201  67.2431   H         1 DT51297   0.0000
    44 H17     29.7254   5.8945  65.9920   H         1 DT51297   0.0000
    45 H18     34.5359  10.6010  66.7728   H         1 DT51297   0.0000
    46 H19     33.9587  12.2331  66.4665   H         1 DT51297   0.0000
    47 H20     32.5979   9.4370  67.0285   H         1 DT51297   0.0000
@<TRIPOS>BOND
     1     1     2    1
     2     2     3    2
     3     2     4    2
     4     2     5    1
     5     5     6   ar
     6     5     7   ar
     7     6     9   ar
     8     7     8   ar
     9     8    10   ar
    10     9    10   ar
    11    10    11    1
    12    11    12    1
    13    12    13    1
    14    12    19    2
    15    13    14    1
    16    13    18    1
    17    14    15    1
    18    14    16    2
    19    15    20    2
    20    16    17    1
    21    17    18    2
    22    19    20    1
    23    20    21    1
    24    21    22    1
    25    22    23    1
    26    22    27    1
    27    23    24    1
    28    24    25    1
    29    25    26    1
    30    26    27    1
    31    17    28    1
    32    19    29    1
    33    24    30    1
    34    24    31    1
    35    23    32    1
    36    23    33    1
    37    27    34    1
    38    27    35    1
    39    25    36    1
    40    25    37    1
    41    22    38    1
    42    26    39    1
    43    26    40    1
    44     7    41    1
    45     8    42    1
    46     9    43    1
    47    11    44    1
    48     1    45    1
    49     1    46    1
    50     6    47    1
@<TRIPOS>SUBSTRUCTURE
     1 DT51297     1 GROUP             0 A     DT5     0  
@<TRIPOS>SET
CCDC_LIGAND STATIC ATOMS
47 1 2 3 4 5 6 7 8 9 \
10 11 12 13 14 15 16 17 18 19 \
20 21 22 23 24 25 26 27 28 29 \
30 31 32 33 34 35 36 37 38 39 \
40 41 42 43 44 45 46 47 
