@<TRIPOS>MOLECULE
A:2KD301
    57    60     1     0     1
SMALL
NO_CHARGES
****
Generated from the CSD

@<TRIPOS>ATOM
     1 N01     23.0339   3.6935  60.3943   N.ar      1 2KD301   0.0000
     2 C02     22.2854   4.7963  60.2905   C.ar      1 2KD301   0.0000
     3 C03     21.0730   4.7602  59.6002   C.ar      1 2KD301   0.0000
     4 C04     20.6405   3.5692  59.0066   C.ar      1 2KD301   0.0000
     5 C05     21.4457   2.4150  59.1382   C.ar      1 2KD301   0.0000
     6 C06     22.6527   2.5235  59.8615   C.ar      1 2KD301   0.0000
     7 C07     21.0972   1.1614  58.6097   C.ar      1 2KD301   0.0000
     8 C08     21.9304   0.0273  58.7843   C.ar      1 2KD301   0.0000
     9 C09     23.1389   0.1791  59.4888   C.ar      1 2KD301   0.0000
    10 C10     23.4857   1.4078  60.0214   C.ar      1 2KD301   0.0000
    11 C11     22.8113   6.0653  60.8853   C.2       1 2KD301   0.0000
    12 C12     19.3114   3.5835  58.2798   C.2       1 2KD301   0.0000
    13 C13     21.5655  -1.3063  58.2363   C.ar      1 2KD301   0.0000
    14 O14     22.0139   6.9313  61.2292   O.2       1 2KD301   0.0000
    15 N15     24.1462   6.1840  61.0129   N.am      1 2KD301   0.0000
    16 C16     24.7705   7.3670  61.5656   C.3       1 2KD301   0.0000
    17 C17     24.7054   7.3271  63.1290   C.3       1 2KD301   0.0000
    18 C18     25.6023   6.1845  63.6829   C.ar      1 2KD301   0.0000
    19 C19     26.2070   7.4217  61.1027   C.2       1 2KD301   0.0000
    20 O20     26.6606   6.5607  60.3574   O.2       1 2KD301   0.0000
    21 O21     26.9107   8.4718  61.5474   O.3       1 2KD301   0.0000
    22 C22     28.2822   8.5240  61.0871   C.3       1 2KD301   0.0000
    23 O23     18.2984   4.0358  58.8767   O.2       1 2KD301   0.0000
    24 O24     19.2286   3.1241  57.1086   O.3       1 2KD301   0.0000
    25 C25     20.9599  -1.4160  56.9747   C.ar      1 2KD301   0.0000
    26 C26     20.6275  -2.6783  56.4505   C.ar      1 2KD301   0.0000
    27 C27     20.9058  -3.8440  57.1835   C.ar      1 2KD301   0.0000
    28 C28     21.5133  -3.7409  58.4304   C.ar      1 2KD301   0.0000
    29 C29     21.8427  -2.4797  58.9546   C.ar      1 2KD301   0.0000
    30 C30     25.1330   4.8519  63.6810   C.ar      1 2KD301   0.0000
    31 C31     25.9565   3.8097  64.1621   C.ar      1 2KD301   0.0000
    32 C32     27.2069   4.1005  64.7364   C.ar      1 2KD301   0.0000
    33 C33     27.6287   5.4408  64.8354   C.ar      1 2KD301   0.0000
    34 C34     26.8667   6.4693  64.2534   C.ar      1 2KD301   0.0000
    35 CL      19.8919  -2.7935  54.8706   Cl        1 2KD301   0.0000
    36 O36     28.0262   3.0453  65.1710   O.3       1 2KD301   0.0000
    37 H1      27.2502   7.4885  64.2413   H         1 2KD301   0.0000
    38 H2      28.5493   5.6815  65.3650   H         1 2KD301   0.0000
    39 H3      28.2399   2.4540  64.4024   H         1 2KD301   0.0000
    40 H4      24.1347   4.6277  63.3081   H         1 2KD301   0.0000
    41 H5      25.6215   2.7762  64.0879   H         1 2KD301   0.0000
    42 H6      21.7345  -4.6409  59.0023   H         1 2KD301   0.0000
    43 H7      20.6477  -4.8213  56.7783   H         1 2KD301   0.0000
    44 H8      22.3195  -2.4117  59.9313   H         1 2KD301   0.0000
    45 H9      20.7460  -0.5176  56.3977   H         1 2KD301   0.0000
    46 H10     19.4914   2.1665  57.1094   H         1 2KD301   0.0000
    47 H11     23.6758   7.1574  63.4405   H         1 2KD301   0.0000
    48 H12     25.0525   8.2797  63.5265   H         1 2KD301   0.0000
    49 H13     28.2984   8.5740  59.9993   H         1 2KD301   0.0000
    50 H14     28.7698   9.4066  61.4983   H         1 2KD301   0.0000
    51 H15     28.8102   7.6306  61.4172   H         1 2KD301   0.0000
    52 H16     20.4634   5.6593  59.5234   H         1 2KD301   0.0000
    53 H17     20.1666   1.0579  58.0536   H         1 2KD301   0.0000
    54 H18     24.7364   5.4156  60.7104   H         1 2KD301   0.0000
    55 H19     23.8038  -0.6741  59.6154   H         1 2KD301   0.0000
    56 H20     24.4193   1.5096  60.5727   H         1 2KD301   0.0000
    57 H21     24.2444   8.2506  61.2072   H         1 2KD301   0.0000
@<TRIPOS>BOND
     1     1     2   ar
     2     1     6   ar
     3     2     3   ar
     4     2    11    1
     5     3     4   ar
     6     4     5   ar
     7     4    12    1
     8     5     6   ar
     9     5     7   ar
    10     6    10   ar
    11     7     8   ar
    12     8     9   ar
    13     8    13    1
    14     9    10   ar
    15    11    14    2
    16    11    15   am
    17    12    23    2
    18    12    24    1
    19    13    25   ar
    20    13    29   ar
    21    15    16    1
    22    16    17    1
    23    16    19    1
    24    17    18    1
    25    18    30   ar
    26    18    34   ar
    27    19    20    2
    28    19    21    1
    29    21    22    1
    30    25    26   ar
    31    26    27   ar
    32    26    35    1
    33    27    28   ar
    34    28    29   ar
    35    30    31   ar
    36    31    32   ar
    37    32    33   ar
    38    32    36    1
    39    33    34   ar
    40    34    37    1
    41    33    38    1
    42    36    39    1
    43    30    40    1
    44    31    41    1
    45    28    42    1
    46    27    43    1
    47    29    44    1
    48    25    45    1
    49    24    46    1
    50    17    47    1
    51    17    48    1
    52    22    49    1
    53    22    50    1
    54    22    51    1
    55     3    52    1
    56     7    53    1
    57    15    54    1
    58     9    55    1
    59    10    56    1
    60    16    57    1
@<TRIPOS>SUBSTRUCTURE
     1 2KD301      1 GROUP             0 A     2KD     0  
@<TRIPOS>SET
CCDC_LIGAND STATIC ATOMS
57 1 2 3 4 5 6 7 8 9 \
10 11 12 13 14 15 16 17 18 19 \
20 21 22 23 24 25 26 27 28 29 \
30 31 32 33 34 35 36 37 38 39 \
40 41 42 43 44 45 46 47 48 49 \
50 51 52 53 54 55 56 57 
