@<TRIPOS>MOLECULE
A:CK2300
    24    25     1     0     1
SMALL
NO_CHARGES
****
Generated from the CSD

@<TRIPOS>ATOM
     1 C7A     25.8889  11.5486  61.7749   C.3       1 CK2300   0.0000
     2 C3A     26.2372  10.1127  62.1103   C.2       1 CK2300   0.0000
     3 S4A     26.7676   9.5244  63.6270   S.3       1 CK2300   0.0000
     4 N2A     26.1395   9.1521  61.2147   N.2       1 CK2300   0.0000
     5 C1A     26.4586   7.9107  61.6851   C.2       1 CK2300   0.0000
     6 C6A     26.4005   6.8400  60.7018   C.3       1 CK2300   0.0000
     7 C5A     26.8315   7.8873  63.0416   C.2       1 CK2300   0.0000
     8 C4      27.2288   6.7521  63.8096   C.ar      1 CK2300   0.0000
     9 N3      26.6618   5.5319  63.6277   N.ar      1 CK2300   0.0000
    10 C5      28.2302   6.8789  64.7882   C.ar      1 CK2300   0.0000
    11 C6      28.6128   5.8051  65.5835   C.ar      1 CK2300   0.0000
    12 N1      28.0573   4.6105  65.3624   N.ar      1 CK2300   0.0000
    13 C2      27.0587   4.4991  64.4357   C.ar      1 CK2300   0.0000
    14 N7      26.4846   3.3617  64.2171   N.pl3     1 CK2300   0.0000
    15 H1      26.7305   2.5528  64.7787   H         1 CK2300   0.0000
    16 H2      25.7879   3.2775  63.4837   H         1 CK2300   0.0000
    17 H3      26.7600  12.1813  61.9388   H         1 CK2300   0.0000
    18 H4      25.5840  11.6139  60.7314   H         1 CK2300   0.0000
    19 H5      25.0723  11.8827  62.4132   H         1 CK2300   0.0000
    20 H6      27.0972   7.0524  59.8922   H         1 CK2300   0.0000
    21 H7      26.6707   5.8972  61.1752   H         1 CK2300   0.0000
    22 H8      25.3901   6.7688  60.3018   H         1 CK2300   0.0000
    23 H9      28.7183   7.8425  64.9265   H         1 CK2300   0.0000
    24 H10     29.3521   5.9352  66.3724   H         1 CK2300   0.0000
@<TRIPOS>BOND
     1     1     2    1
     2     2     3    1
     3     2     4    2
     4     3     7    1
     5     4     5    1
     6     5     6    1
     7     5     7    2
     8     7     8    1
     9     8     9   ar
    10     8    10   ar
    11     9    13   ar
    12    10    11   ar
    13    11    12   ar
    14    12    13   ar
    15    13    14    1
    16    14    15    1
    17    14    16    1
    18     1    17    1
    19     1    18    1
    20     1    19    1
    21     6    20    1
    22     6    21    1
    23     6    22    1
    24    10    23    1
    25    11    24    1
@<TRIPOS>SUBSTRUCTURE
     1 CK2300      1 GROUP             0 A     CK2     0  
@<TRIPOS>SET
CCDC_LIGAND STATIC ATOMS
24 1 2 3 4 5 6 7 8 9 \
10 11 12 13 14 15 16 17 18 19 \
20 21 22 23 24 
