@<TRIPOS>MOLECULE
A:CT81299
    37    40     1     0     1
SMALL
NO_CHARGES
****
Generated from the CSD

@<TRIPOS>ATOM
     1 BR1     25.7308  12.3860  62.2457   Br        1 CT81299   0.0000
     2 C1      25.9347  10.6311  61.5662   C.ar      1 CT81299   0.0000
     3 C2      26.4188   9.6292  62.3997   C.ar      1 CT81299   0.0000
     4 C3      26.5788   8.3301  61.9186   C.ar      1 CT81299   0.0000
     5 C4      26.2223   8.0207  60.5815   C.ar      1 CT81299   0.0000
     6 C5      25.7212   9.0306  59.7429   C.ar      1 CT81299   0.0000
     7 C6      25.5804  10.3389  60.2387   C.ar      1 CT81299   0.0000
     8 C7      27.0876   7.2566  62.8256   C.2       1 CT81299   0.0000
     9 C8      28.2723   7.4335  63.5608   C.2       1 CT81299   0.0000
    10 C9      28.7159   6.3696  64.3788   C.2       1 CT81299   0.0000
    11 N2      27.9717   5.2436  64.4481   N.pl3     1 CT81299   0.0000
    12 N3      28.1875   4.1563  65.1465   N.2       1 CT81299   0.0000
    13 C12     27.1822   3.2852  64.8635   C.2       1 CT81299   0.0000
    14 C10     26.8526   5.1112  63.7636   C.2       1 CT81299   0.0000
    15 N1      26.4051   6.0807  62.9297   N.2       1 CT81299   0.0000
    16 N4      29.9159   6.4663  65.1126   N.pl3     1 CT81299   0.0000
    17 C13     31.0232   7.2645  64.6046   C.3       1 CT81299   0.0000
    18 C14     31.3026   8.3820  65.5777   C.ar      1 CT81299   0.0000
    19 C15     31.3040   8.1312  66.9444   C.ar      1 CT81299   0.0000
    20 C16     31.5373   9.1675  67.8364   C.ar      1 CT81299   0.0000
    21 N5      31.7700  10.4188  67.3755   N.ar      1 CT81299   0.0000
    22 C17     31.7879  10.6780  66.0336   C.ar      1 CT81299   0.0000
    23 C18     31.5396   9.6623  65.1172   C.ar      1 CT81299   0.0000
    24 N11     26.3374   3.9057  64.0007   N.2       1 CT81299   0.0000
    25 H1      25.4435   8.8015  58.7152   H         1 CT81299   0.0000
    26 H2      26.6743   9.8600  63.4328   H         1 CT81299   0.0000
    27 H3      26.3365   7.0048  60.2062   H         1 CT81299   0.0000
    28 H4      25.1961  11.1267  59.5925   H         1 CT81299   0.0000
    29 H5      28.8333   8.3650  63.5018   H         1 CT81299   0.0000
    30 H6      27.0747   2.2754  65.2567   H         1 CT81299   0.0000
    31 H7      30.0084   5.9782  65.9977   H         1 CT81299   0.0000
    32 H8      30.7588   7.6817  63.6341   H         1 CT81299   0.0000
    33 H9      31.9085   6.6387  64.5017   H         1 CT81299   0.0000
    34 H10     31.1223   7.1232  67.3143   H         1 CT81299   0.0000
    35 H11     31.5333   8.9742  68.9081   H         1 CT81299   0.0000
    36 H12     31.9978  11.6863  65.6801   H         1 CT81299   0.0000
    37 H13     31.5321   9.8739  64.0490   H         1 CT81299   0.0000
@<TRIPOS>BOND
     1     1     2    1
     2     2     3   ar
     3     2     7   ar
     4     3     4   ar
     5     4     5   ar
     6     4     8    1
     7     5     6   ar
     8     6     7   ar
     9     8     9    1
    10     8    15    2
    11     9    10    2
    12    10    11    1
    13    10    16    1
    14    11    12    1
    15    11    14    1
    16    12    13    2
    17    13    24    1
    18    14    15    1
    19    14    24    2
    20    16    17    1
    21    17    18    1
    22    18    19   ar
    23    18    23   ar
    24    19    20   ar
    25    20    21   ar
    26    21    22   ar
    27    22    23   ar
    28     6    25    1
    29     3    26    1
    30     5    27    1
    31     7    28    1
    32     9    29    1
    33    13    30    1
    34    16    31    1
    35    17    32    1
    36    17    33    1
    37    19    34    1
    38    20    35    1
    39    22    36    1
    40    23    37    1
@<TRIPOS>SUBSTRUCTURE
     1 CT81299     1 GROUP             0 A     CT8     0  
@<TRIPOS>SET
CCDC_LIGAND STATIC ATOMS
37 1 2 3 4 5 6 7 8 9 \
10 11 12 13 14 15 16 17 18 19 \
20 21 22 23 24 25 26 27 28 29 \
30 31 32 33 34 35 36 37 
