@<TRIPOS>MOLECULE
A:18K299
    41    43     1     0     1
SMALL
NO_CHARGES
****
Generated from the CSD

@<TRIPOS>ATOM
     1 S       26.8295   7.8196  62.7498   S.3       1 18K299   0.0000
     2 C1      24.1846   4.7773  62.2821   C.3       1 18K299   0.0000
     3 N1      24.5735   7.1443  61.6763   N.2       1 18K299   0.0000
     4 C2      25.0191   6.0123  62.3325   C.2       1 18K299   0.0000
     5 N2      25.1562   9.3893  61.3500   N.pl3     1 18K299   0.0000
     6 C3      25.3976   8.1566  61.8174   C.2       1 18K299   0.0000
     7 N3      28.8542   3.8886  65.3582   N.ar      1 18K299   0.0000
     8 C4      26.2469   6.1854  62.9936   C.2       1 18K299   0.0000
     9 N4      30.0850   5.7847  65.6561   N.pl3     1 18K299   0.0000
    10 C5      27.1019   5.3012  63.8040   C.ar      1 18K299   0.0000
    11 N5      32.4159  10.9456  65.5222   N.3       1 18K299   0.0000
    12 C6      26.8499   3.9507  64.0111   C.ar      1 18K299   0.0000
    13 N6      28.1556   5.9326  64.3436   N.ar      1 18K299   0.0000
    14 C7      27.7766   3.3012  64.8109   C.ar      1 18K299   0.0000
    15 C8      29.0012   5.1933  65.0938   C.ar      1 18K299   0.0000
    16 C9      30.6482   7.0754  65.6044   C.ar      1 18K299   0.0000
    17 C10     31.6188   7.4262  66.5410   C.ar      1 18K299   0.0000
    18 C11     32.1627   8.6991  66.5437   C.ar      1 18K299   0.0000
    19 C12     31.7468   9.6233  65.5886   C.ar      1 18K299   0.0000
    20 C13     33.7838  10.8619  64.9257   C.3       1 18K299   0.0000
    21 C14     31.5968  12.0010  64.8569   C.3       1 18K299   0.0000
    22 C15     30.7643   9.2866  64.6541   C.ar      1 18K299   0.0000
    23 C16     30.2226   8.0127  64.6694   C.ar      1 18K299   0.0000
    24 H1      24.0616   4.4643  61.2463   H         1 18K299   0.0000
    25 H2      24.6750   3.9846  62.8451   H         1 18K299   0.0000
    26 H3      23.2077   4.9813  62.7181   H         1 18K299   0.0000
    27 H4      24.3175   9.5713  60.8080   H         1 18K299   0.0000
    28 H5      25.8120  10.1408  61.5380   H         1 18K299   0.0000
    29 H6      30.6111   5.1521  66.2505   H         1 18K299   0.0000
    30 H7      25.9900   3.4416  63.5782   H         1 18K299   0.0000
    31 H8      27.6208   2.2419  65.0095   H         1 18K299   0.0000
    32 H9      31.9514   6.6941  67.2755   H         1 18K299   0.0000
    33 H10     32.9096   8.9755  67.2864   H         1 18K299   0.0000
    34 H11     33.7146  10.4686  63.9126   H         1 18K299   0.0000
    35 H12     34.2299  11.8550  64.8999   H         1 18K299   0.0000
    36 H13     34.4035  10.2012  65.5301   H         1 18K299   0.0000
    37 H14     30.6653  12.1366  65.4045   H         1 18K299   0.0000
    38 H15     32.1514  12.9381  64.8463   H         1 18K299   0.0000
    39 H16     31.3759  11.6983  63.8344   H         1 18K299   0.0000
    40 H17     30.4281  10.0186  63.9213   H         1 18K299   0.0000
    41 H18     29.4572   7.7424  63.9435   H         1 18K299   0.0000
@<TRIPOS>BOND
     1     1     6    1
     2     1     8    1
     3     2     4    1
     4     3     4    1
     5     3     6    2
     6     4     8    2
     7     5     6    1
     8     7    14   ar
     9     7    15   ar
    10     8    10    1
    11     9    15    1
    12     9    16    1
    13    10    12   ar
    14    10    13   ar
    15    11    19    1
    16    11    20    1
    17    11    21    1
    18    12    14   ar
    19    13    15   ar
    20    16    17   ar
    21    16    23   ar
    22    17    18   ar
    23    18    19   ar
    24    19    22   ar
    25    22    23   ar
    26     2    24    1
    27     2    25    1
    28     2    26    1
    29     5    27    1
    30     5    28    1
    31     9    29    1
    32    12    30    1
    33    14    31    1
    34    17    32    1
    35    18    33    1
    36    20    34    1
    37    20    35    1
    38    20    36    1
    39    21    37    1
    40    21    38    1
    41    21    39    1
    42    22    40    1
    43    23    41    1
@<TRIPOS>SUBSTRUCTURE
     1 18K299      1 GROUP             0 A     18K     0  
@<TRIPOS>SET
CCDC_LIGAND STATIC ATOMS
41 1 2 3 4 5 6 7 8 9 \
10 11 12 13 14 15 16 17 18 19 \
20 21 22 23 24 25 26 27 28 29 \
30 31 32 33 34 35 36 37 38 39 \
40 41 
