@<TRIPOS>MOLECULE
A:UCN410
    62    69     1     0     1
SMALL
NO_CHARGES
****
Generated from the CSD

@<TRIPOS>ATOM
     1 O37     25.2884   2.8397  62.4901   O.3       1 UCN410   0.0000
     2 C9      25.5990   3.7055  63.5884   C.3       1 UCN410   0.0000
     3 N1      26.6742   3.2459  64.4754   N.am      1 UCN410   0.0000
     4 C8      27.5120   4.2119  64.8709   C.2       1 UCN410   0.0000
     5 O5      28.4117   4.1490  65.6829   O.2       1 UCN410   0.0000
     6 C7      27.1311   5.4482  64.1775   C.ar      1 UCN410   0.0000
     7 C6      27.7012   6.7996  64.1664   C.ar      1 UCN410   0.0000
     8 C5      28.8566   7.4143  64.8275   C.ar      1 UCN410   0.0000
     9 C20     28.8639   8.8142  64.3750   C.ar      1 UCN410   0.0000
    10 C1      29.8599   9.6883  64.8294   C.ar      1 UCN410   0.0000
    11 C2      30.8260   9.1641  65.6999   C.ar      1 UCN410   0.0000
    12 C3      30.8097   7.8165  66.1115   C.ar      1 UCN410   0.0000
    13 C4      29.8272   6.9110  65.6758   C.ar      1 UCN410   0.0000
    14 N3      27.7650   9.0418  63.5122   N.pl3     1 UCN410   0.0000
    15 C19     27.0577   7.8340  63.3495   C.ar      1 UCN410   0.0000
    16 C18     25.9028   7.5743  62.5962   C.ar      1 UCN410   0.0000
    17 N2      25.1260   8.2946  61.7514   N.pl3     1 UCN410   0.0000
    18 C17     24.1056   7.6067  61.1878   C.ar      1 UCN410   0.0000
    19 C12     24.1898   6.2215  61.7100   C.ar      1 UCN410   0.0000
    20 C13     23.2764   5.1943  61.3061   C.ar      1 UCN410   0.0000
    21 C14     22.2619   5.5364  60.4142   C.ar      1 UCN410   0.0000
    22 C15     22.1404   6.8338  59.9051   C.ar      1 UCN410   0.0000
    23 C16     23.0316   7.8561  60.2555   C.ar      1 UCN410   0.0000
    24 C11     25.3588   6.1851  62.6172   C.ar      1 UCN410   0.0000
    25 C10     25.9464   5.1646  63.3764   C.ar      1 UCN410   0.0000
    26 C21     25.5000   9.7068  61.4379   C.3       1 UCN410   0.0000
    27 O4      25.9805  10.3325  62.6420   O.3       1 UCN410   0.0000
    28 C25     27.3822  10.3485  62.9604   C.3       1 UCN410   0.0000
    29 C24     28.2719  10.7161  61.7569   C.3       1 UCN410   0.0000
    30 C23     27.4304  10.8850  60.4831   C.3       1 UCN410   0.0000
    31 N4      28.1976  11.1375  59.2779   N.3       1 UCN410   0.0000
    32 C28     29.6368  11.0052  59.3683   C.3       1 UCN410   0.0000
    33 C22     26.5327   9.6596  60.3092   C.3       1 UCN410   0.0000
    34 O6      27.3127   8.4437  60.3560   O.3       1 UCN410   0.0000
    35 C27     27.1509   7.5633  59.2429   C.3       1 UCN410   0.0000
    36 C26     24.3107  10.5733  61.0197   C.3       1 UCN410   0.0000
    37 H1      29.0026   9.9243  61.5988   H         1 UCN410   0.0000
    38 H2      28.7894  11.6506  61.9686   H         1 UCN410   0.0000
    39 H3      29.8899   9.9886  59.6657   H         1 UCN410   0.0000
    40 H4      30.0828  11.2213  58.3986   H         1 UCN410   0.0000
    41 H5      30.0200  11.7060  60.1084   H         1 UCN410   0.0000
    42 H6      27.9965  12.0873  58.9817   H         1 UCN410   0.0000
    43 H7      26.7789  11.7439  60.6375   H         1 UCN410   0.0000
    44 H8      31.6136   9.8190  66.0696   H         1 UCN410   0.0000
    45 H9      31.5851   7.4646  66.7904   H         1 UCN410   0.0000
    46 H10     22.9134   8.8476  59.8210   H         1 UCN410   0.0000
    47 H11     23.3721   4.1776  61.6844   H         1 UCN410   0.0000
    48 H12     21.5464   4.7755  60.1061   H         1 UCN410   0.0000
    49 H13     21.3278   7.0558  59.2150   H         1 UCN410   0.0000
    50 H14     29.8829  10.7319  64.5192   H         1 UCN410   0.0000
    51 H15     24.7029   3.7131  64.2073   H         1 UCN410   0.0000
    52 H16     26.0206   9.7219  59.3501   H         1 UCN410   0.0000
    53 H17     27.5407  11.0977  63.7346   H         1 UCN410   0.0000
    54 H18     29.8296   5.8681  65.9893   H         1 UCN410   0.0000
    55 H19     26.7740   2.2780  64.7642   H         1 UCN410   0.0000
    56 H20     25.0040   1.9538  62.8371   H         1 UCN410   0.0000
    57 H21     23.5800  10.6006  61.8267   H         1 UCN410   0.0000
    58 H22     24.6551  11.5844  60.8075   H         1 UCN410   0.0000
    59 H23     23.8504  10.1518  60.1273   H         1 UCN410   0.0000
    60 H24     27.4408   8.0778  58.3279   H         1 UCN410   0.0000
    61 H25     27.7800   6.6850  59.3804   H         1 UCN410   0.0000
    62 H26     26.1087   7.2557  59.1719   H         1 UCN410   0.0000
@<TRIPOS>BOND
     1     1     2    1
     2     2     3    1
     3     2    25    1
     4     3     4   am
     5     4     5    2
     6     4     6    1
     7     6     7   ar
     8     6    25   ar
     9     7     8    1
    10     7    15   ar
    11     8     9   ar
    12     8    13   ar
    13     9    10   ar
    14     9    14    1
    15    10    11   ar
    16    11    12   ar
    17    12    13   ar
    18    14    15    1
    19    14    28    1
    20    15    16   ar
    21    16    17    1
    22    16    24   ar
    23    17    18    1
    24    17    26    1
    25    18    19   ar
    26    18    23   ar
    27    19    20   ar
    28    19    24    1
    29    20    21   ar
    30    21    22   ar
    31    22    23   ar
    32    24    25   ar
    33    26    27    1
    34    26    33    1
    35    26    36    1
    36    27    28    1
    37    28    29    1
    38    29    30    1
    39    30    31    1
    40    30    33    1
    41    31    32    1
    42    33    34    1
    43    34    35    1
    44    29    37    1
    45    29    38    1
    46    32    39    1
    47    32    40    1
    48    32    41    1
    49    31    42    1
    50    30    43    1
    51    11    44    1
    52    12    45    1
    53    23    46    1
    54    20    47    1
    55    21    48    1
    56    22    49    1
    57    10    50    1
    58     2    51    1
    59    33    52    1
    60    28    53    1
    61    13    54    1
    62     3    55    1
    63     1    56    1
    64    36    57    1
    65    36    58    1
    66    36    59    1
    67    35    60    1
    68    35    61    1
    69    35    62    1
@<TRIPOS>SUBSTRUCTURE
     1 UCN410      1 GROUP             0 A     UCN     0  
@<TRIPOS>SET
CCDC_LIGAND STATIC ATOMS
62 1 2 3 4 5 6 7 8 9 \
10 11 12 13 14 15 16 17 18 19 \
20 21 22 23 24 25 26 27 28 29 \
30 31 32 33 34 35 36 37 38 39 \
40 41 42 43 44 45 46 47 48 49 \
50 51 52 53 54 55 56 57 58 59 \
60 61 62 
