@<TRIPOS>MOLECULE
A:NW1401
    35    36     1     0     1
SMALL
NO_CHARGES
****
Generated from the CSD

@<TRIPOS>ATOM
     1 N1      28.8998   6.5157  65.1527   N.ar      1 NW1401   0.0000
     2 C6      27.9625   6.4270  64.1718   C.ar      1 NW1401   0.0000
     3 O6      27.6691   7.5915  63.4593   O.3       1 NW1401   0.0000
     4 C1      28.5934   8.6914  63.6795   C.3       1 NW1401   0.0000
     5 C3      28.2887   9.7032  62.5724   C.3       1 NW1401   0.0000
     6 C11     26.7771   9.8696  62.3166   C.3       1 NW1401   0.0000
     7 C10     26.5658  10.8254  61.1050   C.3       1 NW1401   0.0000
     8 C9      27.2254  12.2077  61.4368   C.3       1 NW1401   0.0000
     9 C8      28.7577  11.9705  61.5413   C.3       1 NW1401   0.0000
    10 C7      28.9864  11.0730  62.8021   C.3       1 NW1401   0.0000
    11 C5      27.2855   5.1322  63.8564   C.ar      1 NW1401   0.0000
    12 N7      26.3311   5.1816  62.7652   N.2       1 NW1401   0.0000
    13 O8      25.7304   4.1349  62.4718   O.2       1 NW1401   0.0000
    14 C4      27.6610   4.0721  64.5733   C.ar      1 NW1401   0.0000
    15 N9      27.1592   2.8876  64.3780   N.pl3     1 NW1401   0.0000
    16 N3      28.6708   4.2965  65.6175   N.ar      1 NW1401   0.0000
    17 C2      29.2574   5.3830  65.8792   C.ar      1 NW1401   0.0000
    18 N2      30.1779   5.5355  66.7973   N.pl3     1 NW1401   0.0000
    19 H1      30.4747   4.7413  67.3552   H         1 NW1401   0.0000
    20 H2      30.5948   6.4480  66.9513   H         1 NW1401   0.0000
    21 H3      29.6232   8.3448  63.6065   H         1 NW1401   0.0000
    22 H4      28.4291   9.1373  64.6594   H         1 NW1401   0.0000
    23 H5      28.7117   9.2929  61.6566   H         1 NW1401   0.0000
    24 H6      26.3022  10.2919  63.2009   H         1 NW1401   0.0000
    25 H7      26.3358   8.8988  62.0961   H         1 NW1401   0.0000
    26 H8      25.5002  10.9610  60.9264   H         1 NW1401   0.0000
    27 H9      27.0316  10.4005  60.2171   H         1 NW1401   0.0000
    28 H10     26.8410  12.5875  62.3823   H         1 NW1401   0.0000
    29 H11     27.0115  12.9233  60.6444   H         1 NW1401   0.0000
    30 H12     29.2778  12.9202  61.6568   H         1 NW1401   0.0000
    31 H13     29.1211  11.4638  60.6485   H         1 NW1401   0.0000
    32 H14     30.0539  10.9196  62.9538   H         1 NW1401   0.0000
    33 H15     28.5612  11.5583  63.6793   H         1 NW1401   0.0000
    34 H16     27.4706   2.1049  64.9442   H         1 NW1401   0.0000
    35 H17     26.4564   2.7463  63.6595   H         1 NW1401   0.0000
@<TRIPOS>BOND
     1     1     2   ar
     2     1    17   ar
     3     2     3    1
     4     2    11   ar
     5     3     4    1
     6     4     5    1
     7     5     6    1
     8     5    10    1
     9     6     7    1
    10     7     8    1
    11     8     9    1
    12     9    10    1
    13    11    12    1
    14    11    14   ar
    15    12    13    2
    16    14    15    1
    17    14    16   ar
    18    16    17   ar
    19    17    18    1
    20    18    19    1
    21    18    20    1
    22     4    21    1
    23     4    22    1
    24     5    23    1
    25     6    24    1
    26     6    25    1
    27     7    26    1
    28     7    27    1
    29     8    28    1
    30     8    29    1
    31     9    30    1
    32     9    31    1
    33    10    32    1
    34    10    33    1
    35    15    34    1
    36    15    35    1
@<TRIPOS>SUBSTRUCTURE
     1 NW1401      1 GROUP             0 A     NW1     0  
@<TRIPOS>SET
CCDC_LIGAND STATIC ATOMS
35 1 2 3 4 5 6 7 8 9 \
10 11 12 13 14 15 16 17 18 19 \
20 21 22 23 24 25 26 27 28 29 \
30 31 32 33 34 35 
