@<TRIPOS>MOLECULE
A:1PU501
    39    42     1     0     1
SMALL
NO_CHARGES
****
Generated from the CSD

@<TRIPOS>ATOM
     1 C1      26.0679   6.0836  63.0465   C.ar      1 1PU501   0.0000
     2 C2      26.2428   7.5288  62.6329   C.3       1 1PU501   0.0000
     3 C3      24.8586   5.6142  62.4885   C.ar      1 1PU501   0.0000
     4 C7      24.2248   6.6873  61.7443   C.2       1 1PU501   0.0000
     5 C6      27.3095   7.8183  61.5519   C.3       1 1PU501   0.0000
     6 C4      26.8654   5.2388  63.8294   C.ar      1 1PU501   0.0000
     7 N5      25.0309   7.7568  61.8427   N.am      1 1PU501   0.0000
     8 C8      24.4350   4.2918  62.6920   C.ar      1 1PU501   0.0000
     9 C9      26.4317   3.9134  64.0292   C.ar      1 1PU501   0.0000
    10 N10     28.0687   5.7702  64.3832   N.am      1 1PU501   0.0000
    11 C11     25.1589   8.7557  60.7620   C.3       1 1PU501   0.0000
    12 C12     26.6904   8.9294  60.6735   C.3       1 1PU501   0.0000
    13 O13     23.1905   6.6049  61.1696   O.2       1 1PU501   0.0000
    14 C14     25.2353   3.4516  63.4608   C.ar      1 1PU501   0.0000
    15 C15     28.9482   5.2439  65.2019   C.2       1 1PU501   0.0000
    16 N16     30.0319   5.9551  65.4575   N.am      1 1PU501   0.0000
    17 O17     28.7627   4.1241  65.6640   O.2       1 1PU501   0.0000
    18 C18     30.4613   7.2451  65.0434   C.ar      1 1PU501   0.0000
    19 C19     31.6762   7.8371  65.4387   C.ar      1 1PU501   0.0000
    20 N20     29.6351   7.8918  64.2371   N.ar      1 1PU501   0.0000
    21 C21     31.9851   9.1236  64.9593   C.ar      1 1PU501   0.0000
    22 C22     29.9022   9.1143  63.7691   C.ar      1 1PU501   0.0000
    23 C23     31.0881   9.7807  64.1124   C.ar      1 1PU501   0.0000
    24 H1      28.2806   6.7196  64.0934   H         1 1PU501   0.0000
    25 H2      30.6893   5.4864  66.0726   H         1 1PU501   0.0000
    26 H3      24.9277   2.4197  63.6236   H         1 1PU501   0.0000
    27 H4      27.0222   8.8221  59.6418   H         1 1PU501   0.0000
    28 H5      26.9801   9.9101  61.0478   H         1 1PU501   0.0000
    29 H6      27.5070   6.9263  60.9593   H         1 1PU501   0.0000
    30 H7      28.2357   8.1626  62.0095   H         1 1PU501   0.0000
    31 H8      23.5030   3.9317  62.2589   H         1 1PU501   0.0000
    32 H9      27.0343   3.2372  64.6338   H         1 1PU501   0.0000
    33 H10     26.3186   8.2015  63.4858   H         1 1PU501   0.0000
    34 H11     32.3620   7.3107  66.1009   H         1 1PU501   0.0000
    35 H12     24.6682   9.6913  61.0263   H         1 1PU501   0.0000
    36 H13     24.7473   8.3819  59.8256   H         1 1PU501   0.0000
    37 H14     32.9186   9.6051  65.2469   H         1 1PU501   0.0000
    38 H15     29.1864   9.6023  63.1091   H         1 1PU501   0.0000
    39 H16     31.3029  10.7779  63.7312   H         1 1PU501   0.0000
@<TRIPOS>BOND
     1     1     2    1
     2     1     3   ar
     3     1     6   ar
     4     2     5    1
     5     2     7    1
     6     3     4    1
     7     3     8   ar
     8     4     7   am
     9     4    13    2
    10     5    12    1
    11     6     9   ar
    12     6    10    1
    13     7    11    1
    14     8    14   ar
    15     9    14   ar
    16    10    15   am
    17    11    12    1
    18    15    16   am
    19    15    17    2
    20    16    18    1
    21    18    19   ar
    22    18    20   ar
    23    19    21   ar
    24    20    22   ar
    25    21    23   ar
    26    22    23   ar
    27    10    24    1
    28    16    25    1
    29    14    26    1
    30    12    27    1
    31    12    28    1
    32     5    29    1
    33     5    30    1
    34     8    31    1
    35     9    32    1
    36     2    33    1
    37    19    34    1
    38    11    35    1
    39    11    36    1
    40    21    37    1
    41    22    38    1
    42    23    39    1
@<TRIPOS>SUBSTRUCTURE
     1 1PU501      1 GROUP             0 A     1PU     0  
@<TRIPOS>SET
CCDC_LIGAND STATIC ATOMS
39 1 2 3 4 5 6 7 8 9 \
10 11 12 13 14 15 16 17 18 19 \
20 21 22 23 24 25 26 27 28 29 \
30 31 32 33 34 35 36 37 38 39 
