@<TRIPOS>MOLECULE
A:4CK300
    31    33     1     0     1
SMALL
NO_CHARGES
****
Generated from the CSD

@<TRIPOS>ATOM
     1 N1      27.4758   3.5093  65.0505   N.2       1 4CK300   0.0000
     2 N2      28.4753   4.0915  65.5274   N.2       1 4CK300   0.0000
     3 N3      29.4286   6.2306  65.4648   N.2       1 4CK300   0.0000
     4 OAA     34.1111  10.6704  68.4411   O.3       1 4CK300   0.0000
     5 OAB     29.0071   7.8975  63.9739   O.2       1 4CK300   0.0000
     6 OAC     34.5627  11.4940  66.4441   O.2       1 4CK300   0.0000
     7 CAD     32.5193   9.9529  65.2300   C.ar      1 4CK300   0.0000
     8 CAE     32.1962   8.9028  67.3913   C.ar      1 4CK300   0.0000
     9 CAF     31.5174   9.1488  64.6752   C.ar      1 4CK300   0.0000
    10 CAG     31.1834   8.1118  66.8454   C.ar      1 4CK300   0.0000
    11 CAH     27.3473   5.5827  64.3608   C.2       1 4CK300   0.0000
    12 CAI     24.9652   4.5565  62.3692   C.3       1 4CK300   0.0000
    13 CAJ     24.2669   4.9485  63.6750   C.3       1 4CK300   0.0000
    14 CAN     33.9440  10.7224  67.2034   C.2       1 4CK300   0.0000
    15 CAO     29.6927   7.4084  64.8723   C.2       1 4CK300   0.0000
    16 CAP     32.8601   9.8238  66.5826   C.ar      1 4CK300   0.0000
    17 CAQ     30.8375   8.2258  65.4860   C.ar      1 4CK300   0.0000
    18 CAR     28.4465   5.3747  65.1277   C.2       1 4CK300   0.0000
    19 CAS     26.7476   4.3832  64.3303   C.2       1 4CK300   0.0000
    20 CAT     25.4213   3.9329  63.6948   C.3       1 4CK300   0.0000
    21 H1      33.0361  10.6820  64.6077   H         1 4CK300   0.0000
    22 H2      32.4656   8.8009  68.4415   H         1 4CK300   0.0000
    23 H3      31.2662   9.2385  63.6194   H         1 4CK300   0.0000
    24 H4      30.6558   7.3995  67.4780   H         1 4CK300   0.0000
    25 H5      27.0268   6.5069  63.8821   H         1 4CK300   0.0000
    26 H6      25.6044   5.2744  61.8574   H         1 4CK300   0.0000
    27 H7      24.4413   3.9479  61.6337   H         1 4CK300   0.0000
    28 H8      23.2473   4.6178  63.8678   H         1 4CK300   0.0000
    29 H9      24.4104   5.9444  64.0916   H         1 4CK300   0.0000
    30 H10     25.1417   2.8929  63.8562   H         1 4CK300   0.0000
    31 H11     33.9028  11.5553  68.8407   H         1 4CK300   0.0000
@<TRIPOS>BOND
     1     1     2    2
     2     1    19    1
     3     2    18    1
     4     3    15    1
     5     3    18    2
     6     4    14    1
     7     5    15    2
     8     6    14    2
     9     7     9   ar
    10     7    16   ar
    11     8    10   ar
    12     8    16   ar
    13     9    17   ar
    14    10    17   ar
    15    11    18    1
    16    11    19    2
    17    12    13    1
    18    12    20    1
    19    13    20    1
    20    14    16    1
    21    15    17    1
    22    19    20    1
    23     7    21    1
    24     8    22    1
    25     9    23    1
    26    10    24    1
    27    11    25    1
    28    12    26    1
    29    12    27    1
    30    13    28    1
    31    13    29    1
    32    20    30    1
    33     4    31    1
@<TRIPOS>SUBSTRUCTURE
     1 4CK300      1 GROUP             0 A     4CK     0  
@<TRIPOS>SET
CCDC_LIGAND STATIC ATOMS
31 1 2 3 4 5 6 7 8 9 \
10 11 12 13 14 15 16 17 18 19 \
20 21 22 23 24 25 26 27 28 29 \
30 31 
