@<TRIPOS>MOLECULE
A:09K301
    37    39     1     0     1
SMALL
NO_CHARGES
****
Generated from the CSD

@<TRIPOS>ATOM
     1 C1      30.8946  11.3475  70.5024   C.3       1 09K301   0.0000
     2 F1      30.9186  12.5177  71.1432   F         1 09K301   0.0000
     3 N1      29.7780   6.1276  65.1977   N.am      1 09K301   0.0000
     4 O1      31.6120  11.4461  69.3244   O.3       1 09K301   0.0000
     5 C2      31.4552  10.5445  68.2739   C.ar      1 09K301   0.0000
     6 F2      31.3797  10.4276  71.3176   F         1 09K301   0.0000
     7 N2      28.5337   4.1082  65.4850   N.2       1 09K301   0.0000
     8 O2      29.2874   7.9708  63.9281   O.2       1 09K301   0.0000
     9 C3      31.2155  11.0649  66.9849   C.ar      1 09K301   0.0000
    10 F3      29.6370  11.0178  70.2492   F         1 09K301   0.0000
    11 N3      27.3820   3.6151  65.0465   N.pl3     1 09K301   0.0000
    12 C4      31.2139  10.1851  65.8878   C.ar      1 09K301   0.0000
    13 C5      31.4359   8.7931  66.1028   C.ar      1 09K301   0.0000
    14 C6      31.6376   8.3126  67.3894   C.ar      1 09K301   0.0000
    15 C7      31.6552   9.1626  68.5137   C.ar      1 09K301   0.0000
    16 C8      31.4815   7.8829  64.9542   C.3       1 09K301   0.0000
    17 C9      30.0685   7.3565  64.6290   C.2       1 09K301   0.0000
    18 C10     28.6177   5.4016  65.0200   C.2       1 09K301   0.0000
    19 C11     26.6637   4.5412  64.2883   C.2       1 09K301   0.0000
    20 C12     27.4292   5.7289  64.2528   C.2       1 09K301   0.0000
    21 C13     25.3674   4.1719  63.7133   C.3       1 09K301   0.0000
    22 C14     24.3299   5.2387  63.4898   C.3       1 09K301   0.0000
    23 C15     24.9833   4.5551  62.3077   C.3       1 09K301   0.0000
    24 H1      30.4854   5.7224  65.8024   H         1 09K301   0.0000
    25 H2      24.5611   6.2791  63.7137   H         1 09K301   0.0000
    26 H3      23.2851   5.0404  63.7247   H         1 09K301   0.0000
    27 H4      31.0348  12.1292  66.8418   H         1 09K301   0.0000
    28 H5      27.0604   2.6722  65.2404   H         1 09K301   0.0000
    29 H6      31.0442  10.5642  64.8812   H         1 09K301   0.0000
    30 H7      31.7872   7.2438  67.5350   H         1 09K301   0.0000
    31 H8      31.8148   8.7754  69.5190   H         1 09K301   0.0000
    32 H9      32.1327   7.0420  65.1883   H         1 09K301   0.0000
    33 H10     31.8738   8.4160  64.0894   H         1 09K301   0.0000
    34 H11     27.1845   6.6706  63.7637   H         1 09K301   0.0000
    35 H12     24.9736   3.2141  64.0502   H         1 09K301   0.0000
    36 H13     24.4094   3.8643  61.6919   H         1 09K301   0.0000
    37 H14     25.6854   5.1030  61.6809   H         1 09K301   0.0000
@<TRIPOS>BOND
     1     1     2    1
     2     1     4    1
     3     1     6    1
     4     1    10    1
     5     3    17   am
     6     3    18    1
     7     4     5    1
     8     5     9   ar
     9     5    15   ar
    10     7    11    1
    11     7    18    2
    12     8    17    2
    13     9    12   ar
    14    11    19    1
    15    12    13   ar
    16    13    14   ar
    17    13    16    1
    18    14    15   ar
    19    16    17    1
    20    18    20    1
    21    19    20    2
    22    19    21    1
    23    21    22    1
    24    21    23    1
    25    22    23    1
    26     3    24    1
    27    22    25    1
    28    22    26    1
    29     9    27    1
    30    11    28    1
    31    12    29    1
    32    14    30    1
    33    15    31    1
    34    16    32    1
    35    16    33    1
    36    20    34    1
    37    21    35    1
    38    23    36    1
    39    23    37    1
@<TRIPOS>SUBSTRUCTURE
     1 09K301      1 GROUP             0 A     09K     0  
@<TRIPOS>SET
CCDC_LIGAND STATIC ATOMS
37 1 2 3 4 5 6 7 8 9 \
10 11 12 13 14 15 16 17 18 19 \
20 21 22 23 24 25 26 27 28 29 \
30 31 32 33 34 35 36 37 
