@<TRIPOS>MOLECULE
A:TIY311
    24    25     1     0     1
SMALL
NO_CHARGES
****
Generated from the CSD

@<TRIPOS>ATOM
     1 C13     28.0708   6.1700  64.6702   C.ar      1 TIY311   0.0000
     2 C15     27.6395   4.8342  64.7057   C.ar      1 TIY311   0.0000
     3 O01     26.2742   3.1318  64.0795   O.3       1 TIY311   0.0000
     4 C02     26.5550   4.4440  63.9201   C.ar      1 TIY311   0.0000
     5 C03     25.8390   5.3425  63.0491   C.ar      1 TIY311   0.0000
     6 C04     26.2988   6.7070  63.0174   C.ar      1 TIY311   0.0000
     7 C05     25.7697   7.7853  62.2600   C.2       1 TIY311   0.0000
     8 C06     24.7073   7.8351  61.3543   C.2       1 TIY311   0.0000
     9 C07     23.8630   6.8047  60.9702   C.2       1 TIY311   0.0000
    10 C08     23.8731   5.4690  61.3784   C.2       1 TIY311   0.0000
    11 C09     24.7418   4.8193  62.2949   C.2       1 TIY311   0.0000
    12 O10     24.4619   3.5914  62.4252   O.2       1 TIY311   0.0000
    13 O11     22.8830   4.7495  60.7672   O.3       1 TIY311   0.0000
    14 C12     27.4077   7.0806  63.8381   C.ar      1 TIY311   0.0000
    15 O14     29.1181   6.5936  65.4107   O.3       1 TIY311   0.0000
    16 O16     28.2384   3.8974  65.4875   O.3       1 TIY311   0.0000
    17 H1      29.9321   6.0863  65.1534   H         1 TIY311   0.0000
    18 H2      28.1765   4.1722  66.4397   H         1 TIY311   0.0000
    19 H3      23.0126   4.7779  59.7831   H         1 TIY311   0.0000
    20 H4      23.0878   7.0728  60.2540   H         1 TIY311   0.0000
    21 H5      26.0529   2.9539  65.0310   H         1 TIY311   0.0000
    22 H6      26.2792   8.7359  62.4110   H         1 TIY311   0.0000
    23 H7      24.5190   8.8033  60.8928   H         1 TIY311   0.0000
    24 H8      27.7505   8.1140  63.8154   H         1 TIY311   0.0000
@<TRIPOS>BOND
     1     1     2   ar
     2     1    14   ar
     3     1    15    1
     4     2     4   ar
     5     2    16    1
     6     3     4    1
     7     4     5   ar
     8     5     6   ar
     9     5    11    1
    10     6     7    1
    11     6    14   ar
    12     7     8    2
    13     8     9    1
    14     9    10    2
    15    10    11    1
    16    10    13    1
    17    11    12    2
    18    15    17    1
    19    16    18    1
    20    13    19    1
    21     9    20    1
    22     3    21    1
    23     7    22    1
    24     8    23    1
    25    14    24    1
@<TRIPOS>SUBSTRUCTURE
     1 TIY311      1 GROUP             0 A     TIY     0  
@<TRIPOS>SET
CCDC_LIGAND STATIC ATOMS
24 1 2 3 4 5 6 7 8 9 \
10 11 12 13 14 15 16 17 18 19 \
20 21 22 23 24 
