@<TRIPOS>MOLECULE
A:1YG301
    50    52     1     0     1
SMALL
NO_CHARGES
****
Generated from the CSD

@<TRIPOS>ATOM
     1 C5      24.8969   7.9296  61.1368   C.2       1 1YG301   0.0000
     2 C7      23.5394   7.6814  61.2837   C.2       1 1YG301   0.0000
     3 C8      25.6723   9.2131  60.8400   C.3       1 1YG301   0.0000
     4 C9      26.2815   4.6092  64.4680   C.2       1 1YG301   0.0000
     5 C10     24.7698  10.4353  61.0006   C.3       1 1YG301   0.0000
     6 C11     26.1994   9.1775  59.4066   C.3       1 1YG301   0.0000
     7 C12     26.8482   9.3487  61.8073   C.3       1 1YG301   0.0000
     8 C14     27.1655   3.7459  65.0294   C.2       1 1YG301   0.0000
     9 C15     28.3762   5.5525  65.2471   C.2       1 1YG301   0.0000
    10 N4      23.3452   6.3710  61.6238   N.2       1 1YG301   0.0000
    11 C1      24.5650   5.8432  61.6724   C.2       1 1YG301   0.0000
    12 O2      25.5526   6.7385  61.3712   O.3       1 1YG301   0.0000
    13 C3      24.9260   4.4789  62.1024   C.3       1 1YG301   0.0000
    14 S6      24.6393   4.4193  63.8772   S.3       1 1YG301   0.0000
    15 N16     28.3396   4.2739  65.4967   N.2       1 1YG301   0.0000
    16 N17     29.5467   6.2542  65.4674   N.am      1 1YG301   0.0000
    17 C18     29.8202   7.5204  65.0256   C.2       1 1YG301   0.0000
    18 O20     29.0337   8.1904  64.3620   O.2       1 1YG301   0.0000
    19 C19     31.2195   8.0281  65.3670   C.3       1 1YG301   0.0000
    20 C22     31.9081   8.5348  64.0992   C.3       1 1YG301   0.0000
    21 C21     31.0973   9.0781  66.4644   C.ar      1 1YG301   0.0000
    22 C24     30.7890  10.4048  66.1798   C.ar      1 1YG301   0.0000
    23 C26     30.7709  11.3597  67.1853   C.ar      1 1YG301   0.0000
    24 C27     31.0432  10.9973  68.4904   C.ar      1 1YG301   0.0000
    25 C25     31.3127   9.6771  68.7911   C.ar      1 1YG301   0.0000
    26 C23     31.3408   8.7231  67.7845   C.ar      1 1YG301   0.0000
    27 S13     26.9660   6.2165  64.4740   S.3       1 1YG301   0.0000
    28 H1      25.3630   9.0932  58.7142   H         1 1YG301   0.0000
    29 H2      26.7509  10.0935  59.1997   H         1 1YG301   0.0000
    30 H3      26.8600   8.3205  59.2839   H         1 1YG301   0.0000
    31 H4      31.3244   9.3473  63.6691   H         1 1YG301   0.0000
    32 H5      32.9051   8.8957  64.3471   H         1 1YG301   0.0000
    33 H6      31.9850   7.7221  63.3784   H         1 1YG301   0.0000
    34 H7      31.5561   7.6848  68.0323   H         1 1YG301   0.0000
    35 H8      22.7489   8.4181  61.1486   H         1 1YG301   0.0000
    36 H9      30.2695   5.7876  66.0060   H         1 1YG301   0.0000
    37 H10     26.9509   2.6810  65.1048   H         1 1YG301   0.0000
    38 H11     24.3946  10.4778  62.0220   H         1 1YG301   0.0000
    39 H12     25.3396  11.3380  60.7852   H         1 1YG301   0.0000
    40 H13     23.9320  10.3612  60.3089   H         1 1YG301   0.0000
    41 H14     31.5039   9.3837  69.8222   H         1 1YG301   0.0000
    42 H15     30.5415  12.3970  66.9458   H         1 1YG301   0.0000
    43 H16     31.7985   7.1928  65.7582   H         1 1YG301   0.0000
    44 H17     31.0453  11.7493  69.2780   H         1 1YG301   0.0000
    45 H18     30.5593  10.6964  65.1561   H         1 1YG301   0.0000
    46 H19     25.9735   4.2785  61.8823   H         1 1YG301   0.0000
    47 H20     24.3016   3.7454  61.5944   H         1 1YG301   0.0000
    48 H21     27.5130   8.4938  61.6928   H         1 1YG301   0.0000
    49 H22     27.3944  10.2651  61.5886   H         1 1YG301   0.0000
    50 H23     26.4750   9.3839  62.8298   H         1 1YG301   0.0000
@<TRIPOS>BOND
     1     1     2    2
     2     1     3    1
     3     1    12    1
     4     2    10    1
     5     3     5    1
     6     3     6    1
     7     3     7    1
     8     4     8    2
     9     4    14    1
    10     4    27    1
    11     8    15    1
    12     9    15    2
    13     9    16    1
    14     9    27    1
    15    10    11    2
    16    11    12    1
    17    11    13    1
    18    13    14    1
    19    16    17   am
    20    17    18    2
    21    17    19    1
    22    19    20    1
    23    19    21    1
    24    21    22   ar
    25    21    26   ar
    26    22    23   ar
    27    23    24   ar
    28    24    25   ar
    29    25    26   ar
    30     6    28    1
    31     6    29    1
    32     6    30    1
    33    20    31    1
    34    20    32    1
    35    20    33    1
    36    26    34    1
    37     2    35    1
    38    16    36    1
    39     8    37    1
    40     5    38    1
    41     5    39    1
    42     5    40    1
    43    25    41    1
    44    23    42    1
    45    19    43    1
    46    24    44    1
    47    22    45    1
    48    13    46    1
    49    13    47    1
    50     7    48    1
    51     7    49    1
    52     7    50    1
@<TRIPOS>SUBSTRUCTURE
     1 1YG301      1 GROUP             0 A     1YG     0  
@<TRIPOS>SET
CCDC_LIGAND STATIC ATOMS
50 1 2 3 4 5 6 7 8 9 \
10 11 12 13 14 15 16 17 18 19 \
20 21 22 23 24 25 26 27 28 29 \
30 31 32 33 34 35 36 37 38 39 \
40 41 42 43 44 45 46 47 48 49 \
50 
