@<TRIPOS>MOLECULE
3CQW:A:CQW999
    19    22     1     0     0
SMALL
NO_CHARGES
****
Generated from the CSD

@<TRIPOS>ATOM
     1 Cl1      5.1890   0.0340  16.0180   Cl        1 RES1   0.0000
     2 N2       3.5360   4.9980  15.8130   N.2       1 RES1   0.0000
     3 N3       5.7690   4.9660  16.3990   N.2       1 RES1   0.0000
     4 N4       2.4620   2.7910  15.5040   N.2       1 RES1   0.0000
     5 N5       7.6210   1.4130  20.1620   N.2       1 RES1   0.0000
     6 N6       8.5560   3.3120  20.6860   N.2       1 RES1   0.0000
     7 N7       7.0580   3.0390  16.7200   N.pl3     1 RES1   0.0000
     8 C8       4.6600   5.6530  16.1330   C.2       1 RES1   0.0000
     9 C9       8.1940   2.0980  21.1470   C.2       1 RES1   0.0000
    10 C10      2.9290   1.5050  15.5760   C.2       1 RES1   0.0000
    11 C11      8.2690   3.8790  16.8780   C.3       1 RES1   0.0000
    12 C12      7.1640   1.8790  17.6360   C.3       1 RES1   0.0000
    13 C13      8.4480   4.4160  18.3160   C.3       1 RES1   0.0000
    14 C14      3.5050   3.6640  15.7790   C.2       1 RES1   0.0000
    15 C15      4.2380   1.4870  15.8800   C.2       1 RES1   0.0000
    16 C16      5.8100   3.6280  16.4240   C.2       1 RES1   0.0000
    17 C17      7.5980   2.2150  19.0420   C.2       1 RES1   0.0000
    18 C18      8.1540   3.3920  19.3700   C.2       1 RES1   0.0000
    19 C19      4.6550   2.8970  16.0700   C.2       1 RES1   0.0000
@<TRIPOS>BOND
     1     1    15    1
     2     2     8    2
     3     2    14    1
     4     3     8    1
     5     3    16    2
     6     4    10    1
     7     4    14    1
     8     5     9    2
     9     5    17    1
    10     6     9    1
    11     6    18    1
    12     7    11    1
    13     7    12    1
    14     7    16    1
    15    10    15    2
    16    11    13    1
    17    12    17    1
    18    13    18    1
    19    14    19    2
    20    15    19    1
    21    16    19    1
    22    17    18    2
@<TRIPOS>SUBSTRUCTURE
     1 RES1        1 GROUP             0 ****  ****    0  
@<TRIPOS>MOLECULE
3MV5:A:XFE999
    16    18     1     0     0
SMALL
NO_CHARGES
****
Generated from the CSD

@<TRIPOS>ATOM
     1 N1       8.0330   3.2350  20.1980   N.3       1 RES1   0.0000
     2 N2       3.5130   4.8220  15.8190   N.2       1 RES1   0.0000
     3 N3       5.7400   5.1830  16.5620   N.2       1 RES1   0.0000
     4 N4       2.7000   2.5390  15.6740   N.2       1 RES1   0.0000
     5 N5       7.2370   3.5770  17.2050   N.pl3     1 RES1   0.0000
     6 C6       5.3740   0.2870  16.6780   C.3       1 RES1   0.0000
     7 C7       4.5530   5.6650  16.1420   C.2       1 RES1   0.0000
     8 C8       3.2050   1.3020  15.9110   C.2       1 RES1   0.0000
     9 C9       8.0740   4.7070  17.5900   C.3       1 RES1   0.0000
    10 C10      7.5260   2.3810  17.9840   C.3       1 RES1   0.0000
    11 C11      9.2670   4.0180  18.2500   C.3       1 RES1   0.0000
    12 C12      3.6360   3.4860  15.9320   C.2       1 RES1   0.0000
    13 C13      5.9420   3.8550  16.7150   C.2       1 RES1   0.0000
    14 C14      8.6320   2.8240  18.9330   C.3       1 RES1   0.0000
    15 C15      4.5310   1.4870  16.3280   C.2       1 RES1   0.0000
    16 C16      4.8740   2.9500  16.3860   C.2       1 RES1   0.0000
@<TRIPOS>BOND
     1     1    14    1
     2     2     7    2
     3     2    12    1
     4     3     7    1
     5     3    13    2
     6     4     8    1
     7     4    12    1
     8     5     9    1
     9     5    10    1
    10     5    13    1
    11     6    15    1
    12     8    15    2
    13     9    11    1
    14    10    14    1
    15    11    14    1
    16    12    16    2
    17    13    16    1
    18    15    16    1
@<TRIPOS>SUBSTRUCTURE
     1 RES1        1 GROUP             0 ****  ****    0  
@<TRIPOS>MOLECULE
3MVH:A:WFE999
    29    32     1     0     0
SMALL
NO_CHARGES
****
Generated from the CSD

@<TRIPOS>ATOM
     1 F1      12.4570  -3.6890  15.6070   F         1 RES1   0.0000
     2 F2      12.3040   0.8960  16.4170   F         1 RES1   0.0000
     3 O3      11.3240   1.5760  18.6020   O.2       1 RES1   0.0000
     4 N4       7.6800   3.9490  19.7010   N.3       1 RES1   0.0000
     5 N5       3.4910   5.1040  15.6070   N.2       1 RES1   0.0000
     6 N6       5.7170   5.2590  16.2500   N.2       1 RES1   0.0000
     7 N7       9.3600   0.7120  19.0350   N.am      1 RES1   0.0000
     8 N8       2.4910   2.9170  15.7670   N.2       1 RES1   0.0000
     9 N9       7.0120   3.6310  17.0550   N.pl3     1 RES1   0.0000
    10 C10      5.8660  -0.0110  15.9110   C.3       1 RES1   0.0000
    11 C11      4.6060   5.8490  15.7510   C.2       1 RES1   0.0000
    12 C12      2.8900   1.6750  16.0940   C.2       1 RES1   0.0000
    13 C13      8.9070   1.9060  19.7550   C.3       1 RES1   0.0000
    14 C14      8.1370   4.6130  17.1680   C.3       1 RES1   0.0000
    15 C15      4.9740   0.5390  17.0100   C.3       1 RES1   0.0000
    16 C16      7.4320   2.3980  17.6130   C.3       1 RES1   0.0000
    17 C17     11.0810  -2.9400  17.3720   C.2       1 RES1   0.0000
    18 C18     10.5990  -1.8540  18.1050   C.2       1 RES1   0.0000
    19 C19     12.3920  -1.4160  16.0070   C.2       1 RES1   0.0000
    20 C20      9.1590   3.9030  18.0900   C.3       1 RES1   0.0000
    21 C21     10.5450   0.6420  18.4990   C.2       1 RES1   0.0000
    22 C22     11.9600  -2.6920  16.3240   C.2       1 RES1   0.0000
    23 C23     11.9200  -0.3480  16.7420   C.2       1 RES1   0.0000
    24 C24      3.5330   3.7700  15.8950   C.2       1 RES1   0.0000
    25 C25      5.7790   3.9530  16.5950   C.2       1 RES1   0.0000
    26 C26      4.2100   1.7430  16.5100   C.2       1 RES1   0.0000
    27 C27     11.0120  -0.5620  17.7640   C.2       1 RES1   0.0000
    28 C28      4.6380   3.1200  16.3800   C.2       1 RES1   0.0000
    29 C29      8.2820   2.9480  18.8190   C.3       1 RES1   0.0000
@<TRIPOS>BOND
     1     1    22    1
     2     2    23    1
     3     3    21    2
     4     4    29    1
     5     5    11    2
     6     5    24    1
     7     6    11    1
     8     6    25    2
     9     7    13    1
    10     7    21   am
    11     8    12    1
    12     8    24    1
    13     9    14    1
    14     9    16    1
    15     9    25    1
    16    10    15    1
    17    12    26    2
    18    13    29    1
    19    14    20    1
    20    15    26    1
    21    16    29    1
    22    17    18    2
    23    17    22    1
    24    18    27    1
    25    19    22    2
    26    19    23    1
    27    20    29    1
    28    21    27    1
    29    23    27    2
    30    24    28    2
    31    25    28    1
    32    26    28    1
@<TRIPOS>SUBSTRUCTURE
     1 RES1        1 GROUP             0 ****  ****    0  
@<TRIPOS>MOLECULE
4GV1:A:0XZ501
    30    33     1     0     0
SMALL
NO_CHARGES
****
Generated from the CSD

@<TRIPOS>ATOM
     1 Cl1     11.6820  -2.5820  14.9390   Cl        1 RES1   0.0000
     2 O2      12.0730   0.8990  22.9240   O.3       1 RES1   0.0000
     3 O3      10.5580   2.7390  18.7040   O.2       1 RES1   0.0000
     4 N4       7.7600   3.1430  20.7390   N.3       1 RES1   0.0000
     5 N5       3.6550   5.0890  15.7240   N.2       1 RES1   0.0000
     6 N6       5.9680   5.1210  16.2560   N.2       1 RES1   0.0000
     7 N7       2.6820   2.8710  15.6040   N.2       1 RES1   0.0000
     8 N8       9.7530   1.1330  20.0640   N.am      1 RES1   0.0000
     9 N9       7.2660   3.2360  16.7140   N.pl3     1 RES1   0.0000
    10 C10     10.9390   0.0880  22.6840   C.3       1 RES1   0.0000
    11 C11      4.7980   5.7880  15.9780   C.2       1 RES1   0.0000
    12 C12      3.1050   1.6000  15.7320   C.2       1 RES1   0.0000
    13 C13      8.3660   4.1580  17.0810   C.3       1 RES1   0.0000
    14 C14      7.5410   1.8720  17.1360   C.3       1 RES1   0.0000
    15 C15     11.0170  -0.5940  21.3110   C.3       1 RES1   0.0000
    16 C16     10.3660  -1.9670  17.2150   C.2       1 RES1   0.0000
    17 C17     12.4500  -0.8080  16.7950   C.2       1 RES1   0.0000
    18 C18      4.4400   1.6850  16.0840   C.2       1 RES1   0.0000
    19 C19     10.2310  -1.2670  18.4020   C.2       1 RES1   0.0000
    20 C20     12.3170  -0.1130  17.9960   C.2       1 RES1   0.0000
    21 C21      8.2400   4.2870  18.6200   C.3       1 RES1   0.0000
    22 C22      7.2310   1.9610  18.6340   C.3       1 RES1   0.0000
    23 C23     11.4780  -1.7290  16.4220   C.2       1 RES1   0.0000
    24 C24      9.6060   2.2890  19.3440   C.2       1 RES1   0.0000
    25 C25      3.7000   3.7200  15.8030   C.2       1 RES1   0.0000
    26 C26      6.0170   3.7440  16.3290   C.2       1 RES1   0.0000
    27 C27     11.0260   0.3950  20.1220   C.3       1 RES1   0.0000
    28 C28     11.2050  -0.3440  18.8010   C.2       1 RES1   0.0000
    29 C29      4.8400   3.0230  16.1090   C.2       1 RES1   0.0000
    30 C30      8.2150   2.9390  19.3450   C.3       1 RES1   0.0000
@<TRIPOS>BOND
     1     1    23    1
     2     2    10    1
     3     3    24    2
     4     4    30    1
     5     5    11    2
     6     5    25    1
     7     6    11    1
     8     6    26    2
     9     7    12    1
    10     7    25    1
    11     8    24   am
    12     8    27    1
    13     9    13    1
    14     9    14    1
    15     9    26    1
    16    10    15    1
    17    12    18    2
    18    13    21    1
    19    14    22    1
    20    15    27    1
    21    16    19    2
    22    16    23    1
    23    17    20    1
    24    17    23    2
    25    18    29    1
    26    19    28    1
    27    20    28    2
    28    21    30    1
    29    22    30    1
    30    24    30    1
    31    25    29    2
    32    26    29    1
    33    27    28    1
@<TRIPOS>SUBSTRUCTURE
     1 RES1        1 GROUP             0 ****  ****    0  
@<TRIPOS>MOLECULE
6CCY:A:EX4501
    41    46     1     0     0
SMALL
NO_CHARGES
****
Generated from the CSD

@<TRIPOS>ATOM
     1 F1      15.0220  -3.2020  16.4140   F         1 RES1   0.0000
     2 F2      13.3650  -3.2110  14.4050   F         1 RES1   0.0000
     3 F3      11.6880  -3.1030  15.7220   F         1 RES1   0.0000
     4 F4      11.9710  -1.6560  14.1690   F         1 RES1   0.0000
     5 O5       1.7550   0.9730  16.2700   O.2       1 RES1   0.0000
     6 N6       3.4920   5.1730  15.5070   N.2       1 RES1   0.0000
     7 N7       5.7810   5.7600  15.9160   N.2       1 RES1   0.0000
     8 N8       2.6140   3.0390  15.8460   N.am      1 RES1   0.0000
     9 N9      11.6190   1.9670  17.6770   N.2       1 RES1   0.0000
    10 N10     12.7280   4.6150  21.4330   N.3       1 RES1   0.0000
    11 N11      7.3930   4.1840  16.7570   N.3       1 RES1   0.0000
    12 N12     12.5940   3.8740  18.4060   N.pl3     1 RES1   0.0000
    13 C13      5.4190   1.2450  14.9270   C.3       1 RES1   0.0000
    14 C14      4.5160   6.0500  15.5800   C.2       1 RES1   0.0000
    15 C15     13.6040   5.0630  20.3100   C.3       1 RES1   0.0000
    16 C16     12.4380   3.1370  21.5010   C.3       1 RES1   0.0000
    17 C17     13.3580   4.9860  22.7400   C.3       1 RES1   0.0000
    18 C18     12.8230   5.1770  18.9880   C.3       1 RES1   0.0000
    19 C19      8.3970   5.3180  16.6260   C.3       1 RES1   0.0000
    20 C20      7.4930   3.5480  18.1540   C.3       1 RES1   0.0000
    21 C21     13.6240   2.9460  18.1870   C.2       1 RES1   0.0000
    22 C22     12.3090   2.7790  22.9880   C.3       1 RES1   0.0000
    23 C23     13.2710   3.7530  23.6770   C.3       1 RES1   0.0000
    24 C24      9.8250   4.6980  16.7180   C.3       1 RES1   0.0000
    25 C25      8.8700   2.8830  18.2630   C.3       1 RES1   0.0000
    26 C26     15.2390  -1.2360  17.7020   C.2       1 RES1   0.0000
    27 C27     14.7480   0.0330  18.0260   C.2       1 RES1   0.0000
    28 C28      4.0280   1.2660  17.0150   C.3       1 RES1   0.0000
    29 C29     12.9540  -0.2250  16.3870   C.2       1 RES1   0.0000
    30 C30      2.7050   1.7100  16.3890   C.2       1 RES1   0.0000
    31 C31      3.7590   3.8790  15.7780   C.2       1 RES1   0.0000
    32 C32     14.5680  -2.0000  16.7220   C.2       1 RES1   0.0000
    33 C33      6.0650   4.4480  16.2280   C.2       1 RES1   0.0000
    34 C34     11.3800   3.2340  18.0540   C.2       1 RES1   0.0000
    35 C35     12.9960   1.7850  17.7450   C.2       1 RES1   0.0000
    36 C36      5.2500   1.8970  16.3220   C.3       1 RES1   0.0000
    37 C37     10.0210   3.8880  18.0230   C.3       1 RES1   0.0000
    38 C38     13.5940   0.5280  17.3690   C.2       1 RES1   0.0000
    39 C39     13.4190  -1.5020  16.0710   C.2       1 RES1   0.0000
    40 C40      5.0540   3.4040  16.1340   C.2       1 RES1   0.0000
    41 C41     12.6320  -2.3510  15.1020   C.3       1 RES1   0.0000
@<TRIPOS>BOND
     1     1    32    1
     2     2    41    1
     3     3    41    1
     4     4    41    1
     5     5    30    2
     6     6    14    2
     7     6    31    1
     8     7    14    1
     9     7    33    2
    10     8    30   am
    11     8    31    1
    12     9    34    2
    13     9    35    1
    14    10    15    1
    15    10    16    1
    16    10    17    1
    17    11    19    1
    18    11    20    1
    19    11    33    1
    20    12    18    1
    21    12    21    1
    22    12    34    1
    23    13    36    1
    24    15    18    1
    25    16    22    1
    26    17    23    1
    27    19    24    1
    28    20    25    1
    29    21    35    2
    30    22    23    1
    31    24    37    1
    32    25    37    1
    33    26    27    2
    34    26    32    1
    35    27    38    1
    36    28    30    1
    37    28    36    1
    38    29    38    2
    39    29    39    1
    40    31    40    2
    41    32    39    2
    42    33    40    1
    43    34    37    1
    44    35    38    1
    45    36    40    1
    46    39    41    1
@<TRIPOS>SUBSTRUCTURE
     1 RES1        1 GROUP             0 ****  ****    0  
@<TRIPOS>MOLECULE
3QKM:A:SM91
    41    45     1     0     0
SMALL
NO_CHARGES
****
Generated from the CSD

@<TRIPOS>ATOM
     1 S1      13.6080  -2.6680  18.6010   S.o2      1 RES1   0.0000
     2 O2      14.3190  -2.4100  19.8600   O.2       1 RES1   0.0000
     3 O3      14.2380  -3.5980  17.6530   O.2       1 RES1   0.0000
     4 O4       9.1180  -1.8630  18.7540   O.3       1 RES1   0.0000
     5 O5      11.6160  -6.9140  18.6480   O.3       1 RES1   0.0000
     6 N6       5.9770   5.3200  16.2060   N.2       1 RES1   0.0000
     7 N7       3.6720   5.0810  15.6710   N.2       1 RES1   0.0000
     8 N8      12.0070  -3.2790  19.0200   N.pl3     1 RES1   0.0000
     9 N9       9.0630   0.7010  20.1300   N.3       1 RES1   0.0000
    10 N10      7.3050   3.6230  16.9730   N.pl3     1 RES1   0.0000
    11 C11     11.4450  -9.2960  18.5580   C.3       1 RES1   0.0000
    12 C12     12.2680  -2.4350  15.7360   C.3       1 RES1   0.0000
    13 C13     14.0040   0.2790  19.7920   C.3       1 RES1   0.0000
    14 C14      4.7970   5.8040  15.7830   C.2       1 RES1   0.0000
    15 C15     11.6400  -8.0710  19.4690   C.3       1 RES1   0.0000
    16 C16     11.5800  -5.7250  19.4130   C.3       1 RES1   0.0000
    17 C17     11.4490  -4.5320  18.4480   C.3       1 RES1   0.0000
    18 C18      8.6140   1.4280  21.3510   C.3       1 RES1   0.0000
    19 C19      8.4980   4.4840  16.9430   C.3       1 RES1   0.0000
    20 C20     11.1000  -2.5750  19.9700   C.3       1 RES1   0.0000
    21 C21      9.9750  -0.4130  20.4950   C.3       1 RES1   0.0000
    22 C22      9.6010   1.5880  19.0540   C.3       1 RES1   0.0000
    23 C23      7.5600   2.4570  17.8390   C.3       1 RES1   0.0000
    24 C24      7.6330   2.5740  21.0420   C.3       1 RES1   0.0000
    25 C25      2.5430   1.6300  16.2280   C.2       1 RES1   0.0000
    26 C26      3.7450   1.0430  16.6880   C.2       1 RES1   0.0000
    27 C27     12.4020   1.3030  16.4780   C.2       1 RES1   0.0000
    28 C28      2.5240   3.0020  15.8850   C.2       1 RES1   0.0000
    29 C29     12.1790   0.0650  15.8390   C.2       1 RES1   0.0000
    30 C30     13.0070   1.3500  17.7540   C.2       1 RES1   0.0000
    31 C31      4.9230   1.8250  16.7970   C.2       1 RES1   0.0000
    32 C32      9.5370   3.8220  17.8670   C.3       1 RES1   0.0000
    33 C33      8.2780   3.5460  20.0300   C.3       1 RES1   0.0000
    34 C34     13.1540  -1.1000  17.7690   C.2       1 RES1   0.0000
    35 C35     10.3130  -1.3950  19.3620   C.3       1 RES1   0.0000
    36 C36      6.0670   4.0200  16.5510   C.2       1 RES1   0.0000
    37 C37      3.7000   3.7800  16.0000   C.2       1 RES1   0.0000
    38 C38     12.5490  -1.1370  16.4820   C.2       1 RES1   0.0000
    39 C39     13.3740   0.1520  18.4090   C.2       1 RES1   0.0000
    40 C40      4.9100   3.1990  16.4550   C.2       1 RES1   0.0000
    41 C41      8.7450   2.8330  18.7340   C.3       1 RES1   0.0000
@<TRIPOS>BOND
     1     1     2    2
     2     1     3    2
     3     1     8    1
     4     1    34    1
     5     4    35    1
     6     5    15    1
     7     5    16    1
     8     6    14    2
     9     6    36    1
    10     7    14    1
    11     7    37    2
    12     8    17    1
    13     8    20    1
    14     9    18    1
    15     9    21    1
    16     9    22    1
    17    10    19    1
    18    10    23    1
    19    10    36    1
    20    11    15    1
    21    12    38    1
    22    13    39    1
    23    16    17    1
    24    18    24    1
    25    19    32    1
    26    20    35    1
    27    21    35    1
    28    22    41    1
    29    23    41    1
    30    24    33    1
    31    25    26    1
    32    25    28    2
    33    26    31    2
    34    27    29    2
    35    27    30    1
    36    28    37    1
    37    29    38    1
    38    30    39    2
    39    31    40    1
    40    32    41    1
    41    33    41    1
    42    34    38    2
    43    34    39    1
    44    36    40    2
    45    37    40    1
@<TRIPOS>SUBSTRUCTURE
     1 RES1        1 GROUP             0 ****  ****    0  
@<TRIPOS>MOLECULE
3QKL:A:SMR1
    39    43     1     0     0
SMALL
NO_CHARGES
****
Generated from the CSD

@<TRIPOS>ATOM
     1 S1      13.6870  -2.7300  18.3740   S.o2      1 RES1   0.0000
     2 O2      14.4060  -2.6600  19.6640   O.2       1 RES1   0.0000
     3 O3      14.3530  -3.5070  17.3190   O.2       1 RES1   0.0000
     4 O4       9.1400  -1.9220  18.3300   O.3       1 RES1   0.0000
     5 O5      11.2710  -6.7530  17.5430   O.3       1 RES1   0.0000
     6 O6       7.1280   1.4040  17.6650   O.3       1 RES1   0.0000
     7 N7       3.2990   5.2060  15.2610   N.2       1 RES1   0.0000
     8 N8       2.7550   3.9460  15.4570   N.2       1 RES1   0.0000
     9 N9      12.0890  -3.4570  18.7400   N.3       1 RES1   0.0000
    10 N10      8.7650   0.3390  19.8100   N.3       1 RES1   0.0000
    11 C11     10.2090  -8.9550  17.6370   C.3       1 RES1   0.0000
    12 C12     14.1740   0.1170  19.8650   C.3       1 RES1   0.0000
    13 C13     12.3380  -2.1820  15.6300   C.3       1 RES1   0.0000
    14 C14     11.3230  -8.0300  18.1890   C.3       1 RES1   0.0000
    15 C15     10.8170  -5.6620  18.3590   C.3       1 RES1   0.0000
    16 C16      4.5720   5.2280  15.6580   C.2       1 RES1   0.0000
    17 C17     12.0210  -4.9330  19.0070   C.3       1 RES1   0.0000
    18 C18      8.0970   0.9810  21.0000   C.3       1 RES1   0.0000
    19 C19     11.1080  -2.7460  19.6440   C.3       1 RES1   0.0000
    20 C20      9.8290  -0.6200  20.2350   C.3       1 RES1   0.0000
    21 C21      9.2470   1.3270  18.7760   C.3       1 RES1   0.0000
    22 C22      6.9500   1.9670  20.6410   C.3       1 RES1   0.0000
    23 C23     12.5520   1.4760  16.6960   C.2       1 RES1   0.0000
    24 C24      4.8190   1.2200  16.9480   C.2       1 RES1   0.0000
    25 C25     13.1700   1.3910  17.9630   C.2       1 RES1   0.0000
    26 C26     12.2920   0.3130  15.9420   C.2       1 RES1   0.0000
    27 C27      3.6380   1.7750  16.3960   C.2       1 RES1   0.0000
    28 C28      7.3440   4.1900  16.8710   C.3       1 RES1   0.0000
    29 C29      7.4340   2.9670  19.5460   C.3       1 RES1   0.0000
    30 C30      8.5640   3.3110  17.2730   C.3       1 RES1   0.0000
    31 C31     13.2670  -1.0490  17.7410   C.2       1 RES1   0.0000
    32 C32     10.3150  -1.5320  19.0770   C.3       1 RES1   0.0000
    33 C33      6.0040   1.9990  17.1070   C.2       1 RES1   0.0000
    34 C34      3.7190   3.1410  16.0110   C.2       1 RES1   0.0000
    35 C35     13.5250   0.1320  18.4930   C.2       1 RES1   0.0000
    36 C36     12.6470  -0.9490  16.4640   C.2       1 RES1   0.0000
    37 C37      4.8700   3.9160  16.1520   C.2       1 RES1   0.0000
    38 C38      6.0570   3.3640  16.7020   C.2       1 RES1   0.0000
    39 C39      8.0970   2.2530  18.3260   C.3       1 RES1   0.0000
@<TRIPOS>BOND
     1     1     2    2
     2     1     3    2
     3     1     9    1
     4     1    31    1
     5     4    32    1
     6     5    14    1
     7     5    15    1
     8     6    33    1
     9     6    39    1
    10     7     8    1
    11     7    16    2
    12     8    34    1
    13     9    17    1
    14     9    19    1
    15    10    18    1
    16    10    20    1
    17    10    21    1
    18    11    14    1
    19    12    35    1
    20    13    36    1
    21    15    17    1
    22    16    37    1
    23    18    22    1
    24    19    32    1
    25    20    32    1
    26    21    39    1
    27    22    29    1
    28    23    25    2
    29    23    26    1
    30    24    27    2
    31    24    33    1
    32    25    35    1
    33    26    36    2
    34    27    34    1
    35    28    30    1
    36    28    38    1
    37    29    39    1
    38    30    39    1
    39    31    35    2
    40    31    36    1
    41    33    38    2
    42    34    37    2
    43    37    38    1
@<TRIPOS>SUBSTRUCTURE
     1 RES1        1 GROUP             0 ****  ****    0  
@<TRIPOS>MOLECULE
3CQU:A:CQU999
    22    25     1     0     0
SMALL
NO_CHARGES
****
Generated from the CSD

@<TRIPOS>ATOM
     1 N1       7.4850  -0.2420  18.4680   N.2       1 RES1   0.0000
     2 N2       7.5060   0.9850  18.0130   N.2       1 RES1   0.0000
     3 N3       3.2080   5.4850  15.7070   N.2       1 RES1   0.0000
     4 N4       5.3850   5.5280  16.5740   N.2       1 RES1   0.0000
     5 N5       2.1880   3.2480  15.5630   N.2       1 RES1   0.0000
     6 N6       8.7480   0.9820  19.7440   N.2       1 RES1   0.0000
     7 N7       6.5920   3.5130  17.1610   N.2       1 RES1   0.0000
     8 C8       8.5760  -1.3830  20.4470   C.3       1 RES1   0.0000
     9 C9       4.3070   6.1150  16.0630   C.2       1 RES1   0.0000
    10 C10      2.6330   2.0010  15.8840   C.2       1 RES1   0.0000
    11 C11      9.2040   5.9050  18.2530   C.2       1 RES1   0.0000
    12 C12     10.0110   5.1170  19.0200   C.2       1 RES1   0.0000
    13 C13      3.8990   2.0860  16.3310   C.2       1 RES1   0.0000
    14 C14      8.1000   5.3900  17.6250   C.2       1 RES1   0.0000
    15 C15      9.6670   3.7950  19.1810   C.2       1 RES1   0.0000
    16 C16      8.2480  -0.2510  19.5400   C.2       1 RES1   0.0000
    17 C17      3.1530   4.1610  15.8010   C.2       1 RES1   0.0000
    18 C18      8.2600   1.7800  18.7590   C.2       1 RES1   0.0000
    19 C19      5.4660   4.2030  16.6950   C.2       1 RES1   0.0000
    20 C20      7.7290   4.0690  17.7710   C.2       1 RES1   0.0000
    21 C21      4.2860   3.4720  16.3190   C.2       1 RES1   0.0000
    22 C22      8.5410   3.2390  18.5790   C.2       1 RES1   0.0000
@<TRIPOS>BOND
     1     1     2    1
     2     1    16    2
     3     2    18    2
     4     3     9    2
     5     3    17    1
     6     4     9    1
     7     4    19    2
     8     5    10    1
     9     5    17    1
    10     6    16    1
    11     6    18    1
    12     7    19    1
    13     7    20    1
    14     8    16    1
    15    10    13    2
    16    11    12    2
    17    11    14    1
    18    12    15    1
    19    13    21    1
    20    14    20    2
    21    15    22    2
    22    17    21    2
    23    18    22    1
    24    19    21    1
    25    20    22    1
@<TRIPOS>SUBSTRUCTURE
     1 RES1        1 GROUP             0 ****  ****    0  
@<TRIPOS>MOLECULE
4EKL:A:0RF501
    32    35     1     0     0
SMALL
NO_CHARGES
****
Generated from the CSD

@<TRIPOS>ATOM
     1 Cl1     11.1430  -2.2740  15.4100   Cl        1 RES1   0.0000
     2 O2      11.8470   4.0310  18.7160   O.2       1 RES1   0.0000
     3 O3       1.4490   3.4620  16.4630   O.3       1 RES1   0.0000
     4 N4       6.1050   5.2860  16.0920   N.2       1 RES1   0.0000
     5 N5       3.7720   5.0990  15.6000   N.2       1 RES1   0.0000
     6 N6      12.5530   2.8800  21.4620   N.2       1 RES1   0.0000
     7 N7       9.5860   3.7320  18.7380   N.am      1 RES1   0.0000
     8 N8       7.4300   3.6800  16.9340   N.pl3     1 RES1   0.0000
     9 C9      13.6520   4.0710  23.3210   C.3       1 RES1   0.0000
    10 C10     14.8780   2.1340  22.0830   C.3       1 RES1   0.0000
    11 C11      5.3330   0.8080  15.8080   C.3       1 RES1   0.0000
    12 C12      4.9320   5.7770  15.6200   C.2       1 RES1   0.0000
    13 C13     12.5340   1.9040  20.3430   C.3       1 RES1   0.0000
    14 C14      9.2300   4.9960  18.0120   C.3       1 RES1   0.0000
    15 C15      8.3980   2.9260  19.0200   C.3       1 RES1   0.0000
    16 C16      8.5280   4.6490  16.7130   C.3       1 RES1   0.0000
    17 C17      7.8390   2.4490  17.6880   C.3       1 RES1   0.0000
    18 C18     10.4170  -1.2910  17.8430   C.2       1 RES1   0.0000
    19 C19     11.8290   0.1190  16.3860   C.2       1 RES1   0.0000
    20 C20     10.4170  -0.2930  18.8410   C.2       1 RES1   0.0000
    21 C21     11.8290   1.1140  17.3660   C.2       1 RES1   0.0000
    22 C22      3.1540   1.6860  16.8770   C.3       1 RES1   0.0000
    23 C23     11.1230  -1.0690  16.6360   C.2       1 RES1   0.0000
    24 C24     10.8660   3.3470  19.0210   C.2       1 RES1   0.0000
    25 C25      6.1630   4.0140  16.5280   C.2       1 RES1   0.0000
    26 C26     13.8740   3.3210  21.9680   C.3       1 RES1   0.0000
    27 C27      2.6270   2.8460  15.9910   C.3       1 RES1   0.0000
    28 C28      3.8050   3.8050  15.9940   C.2       1 RES1   0.0000
    29 C29      4.7280   1.7730  16.8980   C.3       1 RES1   0.0000
    30 C30     11.1190   0.8930  18.5780   C.2       1 RES1   0.0000
    31 C31     11.1510   1.9630  19.6400   C.3       1 RES1   0.0000
    32 C32      4.9650   3.2350  16.4910   C.2       1 RES1   0.0000
@<TRIPOS>BOND
     1     1    23    1
     2     2    24    2
     3     3    27    1
     4     4    12    2
     5     4    25    1
     6     5    12    1
     7     5    28    2
     8     6    13    1
     9     6    26    1
    10     7    14    1
    11     7    15    1
    12     7    24   am
    13     8    16    1
    14     8    17    1
    15     8    25    1
    16     9    26    1
    17    10    26    1
    18    11    29    1
    19    13    31    1
    20    14    16    1
    21    15    17    1
    22    18    20    2
    23    18    23    1
    24    19    21    1
    25    19    23    2
    26    20    30    1
    27    21    30    2
    28    22    27    1
    29    22    29    1
    30    24    31    1
    31    25    32    2
    32    27    28    1
    33    28    32    1
    34    29    32    1
    35    30    31    1
@<TRIPOS>SUBSTRUCTURE
     1 RES1        1 GROUP             0 ****  ****    0  
@<TRIPOS>MOLECULE
3OW4:A:SMY1
    30    34     1     0     0
SMALL
NO_CHARGES
****
Generated from the CSD

@<TRIPOS>ATOM
     1 S1       3.2720   1.1230  16.3960   S.3       1 RES1   0.0000
     2 O2      12.0370   3.8450  18.5250   O.2       1 RES1   0.0000
     3 N3      11.5140   3.3030  21.0200   N.3       1 RES1   0.0000
     4 N4       5.8920   5.3450  16.1670   N.2       1 RES1   0.0000
     5 N5       3.5340   5.0130  15.8660   N.2       1 RES1   0.0000
     6 N6      10.7410  -2.1700  18.3130   N.2       1 RES1   0.0000
     7 N7       9.9200   3.1890  18.0360   N.am      1 RES1   0.0000
     8 N8       7.3490   3.6440  16.7870   N.3       1 RES1   0.0000
     9 C9       5.8630   0.9500  15.7720   C.3       1 RES1   0.0000
    10 C10      2.5080   2.7570  16.1820   C.3       1 RES1   0.0000
    11 C11      4.6470   5.7580  15.8810   C.2       1 RES1   0.0000
    12 C12     10.8840  -1.2570  19.3900   C.2       1 RES1   0.0000
    13 C13      8.8640   2.1730  18.1880   C.3       1 RES1   0.0000
    14 C14      9.8310   3.9720  16.7890   C.3       1 RES1   0.0000
    15 C15      7.5240   2.8990  18.0550   C.3       1 RES1   0.0000
    16 C16      8.4460   4.6010  16.5850   C.3       1 RES1   0.0000
    17 C17     12.3560  -1.2550  15.0650   C.2       1 RES1   0.0000
    18 C18     12.9070  -0.0150  15.4830   C.2       1 RES1   0.0000
    19 C19     11.6000  -2.0610  15.9530   C.2       1 RES1   0.0000
    20 C20     12.7100   0.4410  16.8050   C.2       1 RES1   0.0000
    21 C21     11.9800   1.0390  19.9780   C.3       1 RES1   0.0000
    22 C22      4.9640   1.6910  16.7670   C.3       1 RES1   0.0000
    23 C23     11.1050   3.0410  18.6730   C.2       1 RES1   0.0000
    24 C24      6.0580   4.0440  16.4580   C.2       1 RES1   0.0000
    25 C25     11.1110   2.3090  19.9880   C.3       1 RES1   0.0000
    26 C26      3.6700   3.7160  16.1670   C.2       1 RES1   0.0000
    27 C27     11.4150  -1.5930  17.2750   C.2       1 RES1   0.0000
    28 C28     11.6070  -0.1310  19.0760   C.2       1 RES1   0.0000
    29 C29     11.9570  -0.3700  17.6840   C.2       1 RES1   0.0000
    30 C30      4.9290   3.1790  16.4730   C.2       1 RES1   0.0000
@<TRIPOS>BOND
     1     1    10    1
     2     1    22    1
     3     2    23    2
     4     3    25    1
     5     4    11    2
     6     4    24    1
     7     5    11    1
     8     5    26    2
     9     6    12    1
    10     6    27    1
    11     7    13    1
    12     7    14    1
    13     7    23   am
    14     8    15    1
    15     8    16    1
    16     8    24    1
    17     9    22    1
    18    10    26    1
    19    12    28    2
    20    13    15    1
    21    14    16    1
    22    17    18    2
    23    17    19    1
    24    18    20    1
    25    19    27    2
    26    20    29    2
    27    21    25    1
    28    21    28    1
    29    22    30    1
    30    23    25    1
    31    24    30    2
    32    26    30    1
    33    27    29    1
    34    28    29    1
@<TRIPOS>SUBSTRUCTURE
     1 RES1        1 GROUP             0 ****  ****    0  
@<TRIPOS>MOLECULE
3OCB:A:XM11
    28    31     1     0     0
SMALL
NO_CHARGES
****
Generated from the CSD

@<TRIPOS>ATOM
     1 Cl1     12.0900  -2.1920  14.4620   Cl        1 RES1   0.0000
     2 O2      11.0970   2.6000  19.8190   O.2       1 RES1   0.0000
     3 N3       8.5250   1.8560  21.7390   N.3       1 RES1   0.0000
     4 N4       3.4260   4.8320  15.8950   N.2       1 RES1   0.0000
     5 N5       5.7610   4.9690  16.5510   N.2       1 RES1   0.0000
     6 N6       2.6650   2.5510  15.6360   N.2       1 RES1   0.0000
     7 N7       9.5200   2.0050  18.3070   N.am      1 RES1   0.0000
     8 N8       7.1020   3.0240  16.8950   N.3       1 RES1   0.0000
     9 C9       4.5560   5.4790  16.2250   C.2       1 RES1   0.0000
    10 C10      9.5230   0.7620  21.6890   C.3       1 RES1   0.0000
    11 C11      3.2830   1.3000  15.7810   C.2       1 RES1   0.0000
    12 C12      9.5830   3.2700  17.5430   C.3       1 RES1   0.0000
    13 C13      8.4850   1.0660  17.8210   C.3       1 RES1   0.0000
    14 C14      8.1940   3.9210  17.3350   C.3       1 RES1   0.0000
    15 C15      7.1040   1.7530  17.6550   C.3       1 RES1   0.0000
    16 C16     12.4710  -0.4750  16.5360   C.2       1 RES1   0.0000
    17 C17     11.1100  -2.4810  16.9850   C.2       1 RES1   0.0000
    18 C18      4.6060   1.4190  16.1520   C.2       1 RES1   0.0000
    19 C19     12.2980  -0.0540  17.8730   C.2       1 RES1   0.0000
    20 C20     10.9400  -2.0550  18.3190   C.2       1 RES1   0.0000
    21 C21     11.3320  -0.3950  20.1920   C.3       1 RES1   0.0000
    22 C22     11.8770  -1.6860  16.1000   C.2       1 RES1   0.0000
    23 C23     10.2320   1.8010  19.4470   C.2       1 RES1   0.0000
    24 C24      3.5830   3.5030  15.9110   C.2       1 RES1   0.0000
    25 C25      5.9000   3.6270  16.5580   C.2       1 RES1   0.0000
    26 C26     11.5380  -0.8520  18.7600   C.2       1 RES1   0.0000
    27 C27     10.0660   0.4940  20.2690   C.3       1 RES1   0.0000
    28 C28      4.7710   2.8400  16.2270   C.2       1 RES1   0.0000
@<TRIPOS>BOND
     1     1    22    1
     2     2    23    2
     3     3    10    1
     4     4     9    2
     5     4    24    1
     6     5     9    1
     7     5    25    2
     8     6    11    1
     9     6    24    1
    10     7    12    1
    11     7    13    1
    12     7    23   am
    13     8    14    1
    14     8    15    1
    15     8    25    1
    16    10    27    1
    17    11    18    2
    18    12    14    1
    19    13    15    1
    20    16    19    2
    21    16    22    1
    22    17    20    1
    23    17    22    2
    24    18    28    1
    25    19    26    1
    26    20    26    2
    27    21    26    1
    28    21    27    1
    29    23    27    1
    30    24    28    2
    31    25    28    1
@<TRIPOS>SUBSTRUCTURE
     1 RES1        1 GROUP             0 ****  ****    0  
@<TRIPOS>MOLECULE
3QKK:A:SMH1
    38    41     1     0     0
SMALL
NO_CHARGES
****
Generated from the CSD

@<TRIPOS>ATOM
     1 S1      13.5650  -3.1300  18.3780   S.o2      1 RES1   0.0000
     2 O2      14.3410  -3.0800  19.6170   O.2       1 RES1   0.0000
     3 O3      14.1480  -3.8840  17.2700   O.2       1 RES1   0.0000
     4 O4       9.2370  -2.3220  18.4220   O.3       1 RES1   0.0000
     5 O5       3.5380   4.6880  15.4930   O.3       1 RES1   0.0000
     6 O6       8.6110   5.1820  16.7800   O.2       1 RES1   0.0000
     7 O7      11.0240  -7.3160  17.9130   O.3       1 RES1   0.0000
     8 O8       7.4120   1.4530  17.7380   O.3       1 RES1   0.0000
     9 N9      11.9950  -3.8100  18.7290   N.pl3     1 RES1   0.0000
    10 N10      8.8870  -0.0360  19.9980   N.3       1 RES1   0.0000
    11 C11     10.9080  -9.6540  17.5650   C.3       1 RES1   0.0000
    12 C12     12.2630  -2.1900  15.6150   C.3       1 RES1   0.0000
    13 C13     14.1790  -0.6160  20.1230   C.3       1 RES1   0.0000
    14 C14     11.4010  -8.5450  18.4980   C.3       1 RES1   0.0000
    15 C15     11.2960  -6.2110  18.7640   C.3       1 RES1   0.0000
    16 C16     11.4340  -4.9230  17.9120   C.3       1 RES1   0.0000
    17 C17      8.2320   0.5770  21.1870   C.3       1 RES1   0.0000
    18 C18     11.0650  -3.2110  19.7290   C.3       1 RES1   0.0000
    19 C19      9.9160  -1.0370  20.3600   C.3       1 RES1   0.0000
    20 C20      9.4120   0.9560  19.0020   C.3       1 RES1   0.0000
    21 C21      7.1430   1.6320  20.8300   C.3       1 RES1   0.0000
    22 C22     12.7210   1.2760  17.1460   C.2       1 RES1   0.0000
    23 C23      4.2000   2.5760  16.3530   C.2       1 RES1   0.0000
    24 C24     12.3850   0.2400  16.2470   C.2       1 RES1   0.0000
    25 C25     13.3060   0.9950  18.3990   C.2       1 RES1   0.0000
    26 C26      5.1840   1.7480  16.9230   C.2       1 RES1   0.0000
    27 C27      7.6700   2.6620  19.8160   C.3       1 RES1   0.0000
    28 C28      5.8250   4.4360  16.2410   C.2       1 RES1   0.0000
    29 C29      9.1390   3.1000  17.7490   C.3       1 RES1   0.0000
    30 C30     10.3650  -1.9440  19.1990   C.3       1 RES1   0.0000
    31 C31      4.5290   3.9090  16.0230   C.2       1 RES1   0.0000
    32 C32     13.2350  -1.3940  17.8620   C.2       1 RES1   0.0000
    33 C33      8.1750   4.0880  17.1040   C.2       1 RES1   0.0000
    34 C34      6.4730   2.2620  17.1640   C.2       1 RES1   0.0000
    35 C35     12.6380  -1.0970  16.6090   C.2       1 RES1   0.0000
    36 C36     13.5620  -0.3410  18.7570   C.2       1 RES1   0.0000
    37 C37      6.8020   3.6000  16.8280   C.2       1 RES1   0.0000
    38 C38      8.3900   2.0350  18.5850   C.3       1 RES1   0.0000
@<TRIPOS>BOND
     1     1     2    2
     2     1     3    2
     3     1     9    1
     4     1    32    1
     5     4    30    1
     6     5    31    1
     7     6    33    2
     8     7    14    1
     9     7    15    1
    10     8    34    1
    11     8    38    1
    12     9    16    1
    13     9    18    1
    14    10    17    1
    15    10    19    1
    16    10    20    1
    17    11    14    1
    18    12    35    1
    19    13    36    1
    20    15    16    1
    21    17    21    1
    22    18    30    1
    23    19    30    1
    24    20    38    1
    25    21    27    1
    26    22    24    2
    27    22    25    1
    28    23    26    1
    29    23    31    2
    30    24    35    1
    31    25    36    2
    32    26    34    2
    33    27    38    1
    34    28    31    1
    35    28    37    2
    36    29    33    1
    37    29    38    1
    38    32    35    2
    39    32    36    1
    40    33    37    1
    41    34    37    1
@<TRIPOS>SUBSTRUCTURE
     1 RES1        1 GROUP             0 ****  ****    0  
